version 2
run Default-0-20210902-09:06:58-1829
attr configname Default
attr datetime 20210902-09:06:58
attr experiment Default
attr inifile omnetpp.ini
attr iterationvars ""
attr iterationvarsf ""
attr measurement ""
attr network RSUExampleScenario
attr processid 1829
attr repetition 0
attr replication #0
attr resultdir results
attr runnumber 0
attr seedset 0
param *.playgroundSizeX 2500m
param *.playgroundSizeY 2500m
param *.playgroundSizeZ 50m
param *.annotations.draw true
param *.obstacles.obstacles "xmldoc(\"config.xml\", \"//AnalogueModel[@type='SimpleObstacleShadowing']/obstacles\")"
param *.manager.updateInterval 1s
param *.manager.host "\"localhost\""
param *.manager.port 9999
param *.manager.autoShutdown true
param *.manager.launchConfig "xmldoc(\"erlangen.launchd.xml\")"
param *.rsu[0].mobility.x 2000
param *.rsu[0].mobility.y 2000
param *.rsu[0].mobility.z 3
param *.rsu[*].applType "\"TraCIDemoRSU11p\""
param *.rsu[*].appl.headerLength "80 bit"
param *.rsu[*].appl.sendBeacons true
param *.rsu[*].appl.dataOnSch false
param *.rsu[*].appl.beaconInterval 1s
param *.rsu[*].appl.beaconUserPriority 7
param *.rsu[*].appl.dataUserPriority 5
param *.rsu[*].nic.phy80211p.antennaOffsetZ "0 m"
param *.connectionManager.sendDirect true
param *.connectionManager.maxInterfDist 2600m
param *.connectionManager.drawMaxIntfDist false
param *.**.nic.mac1609_4.useServiceChannel false
param *.**.nic.mac1609_4.txPower 20mW
param *.**.nic.mac1609_4.bitrate 6Mbps
param *.**.nic.phy80211p.minPowerLevel -110dBm
param *.**.nic.phy80211p.useNoiseFloor true
param *.**.nic.phy80211p.noiseFloor -98dBm
param *.**.nic.phy80211p.decider "xmldoc(\"config.xml\")"
param *.**.nic.phy80211p.analogueModels "xmldoc(\"config.xml\")"
param *.**.nic.phy80211p.usePropagationDelay true
param *.**.nic.phy80211p.antenna "xmldoc(\"antenna.xml\", \"/root/Antenna[@id='monopole']\")"
param *.node[*].nic.phy80211p.antennaOffsetY "0 m"
param *.node[*].nic.phy80211p.antennaOffsetZ "1.895 m"
param *.node[*].applType "\"TraCIDemo11p\""
param *.node[*].appl.headerLength "80 bit"
param *.node[*].appl.sendBeacons false
param *.node[*].appl.dataOnSch false
param *.node[*].appl.beaconInterval 1s
param *.node[*].veinsmobility.x 0
param *.node[*].veinsmobility.y 0
param *.node[*].veinsmobility.z 0
param *.node[*].veinsmobility.setHostSpeed false
param *.node[*0].veinsmobility.accidentCount 1
param *.node[*0].veinsmobility.accidentStart 73s
param *.node[*0].veinsmobility.accidentDuration 50s

vector 0 RSUExampleScenario.node[0].veinsmobility posx ETV
vector 1 RSUExampleScenario.node[0].veinsmobility posy ETV
vector 2 RSUExampleScenario.node[0].veinsmobility speed ETV
vector 3 RSUExampleScenario.node[0].veinsmobility acceleration ETV
vector 4 RSUExampleScenario.node[0].veinsmobility co2emission ETV
vector 5 RSUExampleScenario.node[1].veinsmobility posx ETV
vector 6 RSUExampleScenario.node[1].veinsmobility posy ETV
vector 7 RSUExampleScenario.node[1].veinsmobility speed ETV
vector 8 RSUExampleScenario.node[1].veinsmobility acceleration ETV
vector 9 RSUExampleScenario.node[1].veinsmobility co2emission ETV
vector 10 RSUExampleScenario.node[2].veinsmobility posx ETV
vector 11 RSUExampleScenario.node[2].veinsmobility posy ETV
vector 12 RSUExampleScenario.node[2].veinsmobility speed ETV
vector 13 RSUExampleScenario.node[2].veinsmobility acceleration ETV
vector 14 RSUExampleScenario.node[2].veinsmobility co2emission ETV
vector 15 RSUExampleScenario.node[3].veinsmobility posx ETV
vector 16 RSUExampleScenario.node[3].veinsmobility posy ETV
vector 17 RSUExampleScenario.node[3].veinsmobility speed ETV
vector 18 RSUExampleScenario.node[3].veinsmobility acceleration ETV
vector 19 RSUExampleScenario.node[3].veinsmobility co2emission ETV
vector 20 RSUExampleScenario.node[4].veinsmobility posx ETV
vector 21 RSUExampleScenario.node[4].veinsmobility posy ETV
vector 22 RSUExampleScenario.node[4].veinsmobility speed ETV
vector 23 RSUExampleScenario.node[4].veinsmobility acceleration ETV
vector 24 RSUExampleScenario.node[4].veinsmobility co2emission ETV
vector 25 RSUExampleScenario.node[5].veinsmobility posx ETV
vector 26 RSUExampleScenario.node[5].veinsmobility posy ETV
vector 27 RSUExampleScenario.node[5].veinsmobility speed ETV
vector 28 RSUExampleScenario.node[5].veinsmobility acceleration ETV
vector 29 RSUExampleScenario.node[5].veinsmobility co2emission ETV
vector 30 RSUExampleScenario.node[6].veinsmobility posx ETV
vector 31 RSUExampleScenario.node[6].veinsmobility posy ETV
vector 32 RSUExampleScenario.node[6].veinsmobility speed ETV
vector 33 RSUExampleScenario.node[6].veinsmobility acceleration ETV
vector 34 RSUExampleScenario.node[6].veinsmobility co2emission ETV
vector 35 RSUExampleScenario.node[7].veinsmobility posx ETV
vector 36 RSUExampleScenario.node[7].veinsmobility posy ETV
vector 37 RSUExampleScenario.node[7].veinsmobility speed ETV
vector 38 RSUExampleScenario.node[7].veinsmobility acceleration ETV
vector 39 RSUExampleScenario.node[7].veinsmobility co2emission ETV
vector 40 RSUExampleScenario.node[8].veinsmobility posx ETV
vector 41 RSUExampleScenario.node[8].veinsmobility posy ETV
vector 42 RSUExampleScenario.node[8].veinsmobility speed ETV
vector 43 RSUExampleScenario.node[8].veinsmobility acceleration ETV
vector 44 RSUExampleScenario.node[8].veinsmobility co2emission ETV
vector 45 RSUExampleScenario.node[9].veinsmobility posx ETV
vector 46 RSUExampleScenario.node[9].veinsmobility posy ETV
vector 47 RSUExampleScenario.node[9].veinsmobility speed ETV
vector 48 RSUExampleScenario.node[9].veinsmobility acceleration ETV
vector 49 RSUExampleScenario.node[9].veinsmobility co2emission ETV
vector 50 RSUExampleScenario.node[10].veinsmobility posx ETV
vector 51 RSUExampleScenario.node[10].veinsmobility posy ETV
vector 52 RSUExampleScenario.node[10].veinsmobility speed ETV
vector 53 RSUExampleScenario.node[10].veinsmobility acceleration ETV
vector 54 RSUExampleScenario.node[10].veinsmobility co2emission ETV
vector 55 RSUExampleScenario.node[11].veinsmobility posx ETV
vector 56 RSUExampleScenario.node[11].veinsmobility posy ETV
vector 57 RSUExampleScenario.node[11].veinsmobility speed ETV
vector 58 RSUExampleScenario.node[11].veinsmobility acceleration ETV
vector 59 RSUExampleScenario.node[11].veinsmobility co2emission ETV
vector 60 RSUExampleScenario.node[12].veinsmobility posx ETV
vector 61 RSUExampleScenario.node[12].veinsmobility posy ETV
vector 62 RSUExampleScenario.node[12].veinsmobility speed ETV
vector 63 RSUExampleScenario.node[12].veinsmobility acceleration ETV
vector 64 RSUExampleScenario.node[12].veinsmobility co2emission ETV
vector 65 RSUExampleScenario.node[13].veinsmobility posx ETV
vector 66 RSUExampleScenario.node[13].veinsmobility posy ETV
vector 67 RSUExampleScenario.node[13].veinsmobility speed ETV
vector 68 RSUExampleScenario.node[13].veinsmobility acceleration ETV
vector 69 RSUExampleScenario.node[13].veinsmobility co2emission ETV
vector 70 RSUExampleScenario.node[14].veinsmobility posx ETV
vector 71 RSUExampleScenario.node[14].veinsmobility posy ETV
vector 72 RSUExampleScenario.node[14].veinsmobility speed ETV
vector 73 RSUExampleScenario.node[14].veinsmobility acceleration ETV
vector 74 RSUExampleScenario.node[14].veinsmobility co2emission ETV
vector 75 RSUExampleScenario.node[15].veinsmobility posx ETV
vector 76 RSUExampleScenario.node[15].veinsmobility posy ETV
vector 77 RSUExampleScenario.node[15].veinsmobility speed ETV
vector 78 RSUExampleScenario.node[15].veinsmobility acceleration ETV
vector 79 RSUExampleScenario.node[15].veinsmobility co2emission ETV
vector 80 RSUExampleScenario.node[16].veinsmobility posx ETV
vector 81 RSUExampleScenario.node[16].veinsmobility posy ETV
vector 82 RSUExampleScenario.node[16].veinsmobility speed ETV
vector 83 RSUExampleScenario.node[16].veinsmobility acceleration ETV
vector 84 RSUExampleScenario.node[16].veinsmobility co2emission ETV
vector 85 RSUExampleScenario.node[17].veinsmobility posx ETV
vector 86 RSUExampleScenario.node[17].veinsmobility posy ETV
vector 87 RSUExampleScenario.node[17].veinsmobility speed ETV
vector 88 RSUExampleScenario.node[17].veinsmobility acceleration ETV
vector 89 RSUExampleScenario.node[17].veinsmobility co2emission ETV
vector 90 RSUExampleScenario.node[18].veinsmobility posx ETV
vector 91 RSUExampleScenario.node[18].veinsmobility posy ETV
vector 92 RSUExampleScenario.node[18].veinsmobility speed ETV
vector 93 RSUExampleScenario.node[18].veinsmobility acceleration ETV
vector 94 RSUExampleScenario.node[18].veinsmobility co2emission ETV
vector 95 RSUExampleScenario.node[19].veinsmobility posx ETV
vector 96 RSUExampleScenario.node[19].veinsmobility posy ETV
vector 97 RSUExampleScenario.node[19].veinsmobility speed ETV
vector 98 RSUExampleScenario.node[19].veinsmobility acceleration ETV
vector 99 RSUExampleScenario.node[19].veinsmobility co2emission ETV
vector 100 RSUExampleScenario.node[20].veinsmobility posx ETV
vector 101 RSUExampleScenario.node[20].veinsmobility posy ETV
vector 102 RSUExampleScenario.node[20].veinsmobility speed ETV
vector 103 RSUExampleScenario.node[20].veinsmobility acceleration ETV
vector 104 RSUExampleScenario.node[20].veinsmobility co2emission ETV
vector 105 RSUExampleScenario.node[21].veinsmobility posx ETV
vector 106 RSUExampleScenario.node[21].veinsmobility posy ETV
vector 107 RSUExampleScenario.node[21].veinsmobility speed ETV
vector 108 RSUExampleScenario.node[21].veinsmobility acceleration ETV
vector 109 RSUExampleScenario.node[21].veinsmobility co2emission ETV
vector 110 RSUExampleScenario.node[22].veinsmobility posx ETV
vector 111 RSUExampleScenario.node[22].veinsmobility posy ETV
vector 112 RSUExampleScenario.node[22].veinsmobility speed ETV
vector 113 RSUExampleScenario.node[22].veinsmobility acceleration ETV
vector 114 RSUExampleScenario.node[22].veinsmobility co2emission ETV
vector 115 RSUExampleScenario.node[23].veinsmobility posx ETV
vector 116 RSUExampleScenario.node[23].veinsmobility posy ETV
vector 117 RSUExampleScenario.node[23].veinsmobility speed ETV
vector 118 RSUExampleScenario.node[23].veinsmobility acceleration ETV
vector 119 RSUExampleScenario.node[23].veinsmobility co2emission ETV
vector 120 RSUExampleScenario.node[24].veinsmobility posx ETV
vector 121 RSUExampleScenario.node[24].veinsmobility posy ETV
vector 122 RSUExampleScenario.node[24].veinsmobility speed ETV
vector 123 RSUExampleScenario.node[24].veinsmobility acceleration ETV
vector 124 RSUExampleScenario.node[24].veinsmobility co2emission ETV
vector 125 RSUExampleScenario.node[25].veinsmobility posx ETV
vector 126 RSUExampleScenario.node[25].veinsmobility posy ETV
vector 127 RSUExampleScenario.node[25].veinsmobility speed ETV
vector 128 RSUExampleScenario.node[25].veinsmobility acceleration ETV
vector 129 RSUExampleScenario.node[25].veinsmobility co2emission ETV
vector 130 RSUExampleScenario.node[26].veinsmobility posx ETV
vector 131 RSUExampleScenario.node[26].veinsmobility posy ETV
vector 132 RSUExampleScenario.node[26].veinsmobility speed ETV
vector 133 RSUExampleScenario.node[26].veinsmobility acceleration ETV
vector 134 RSUExampleScenario.node[26].veinsmobility co2emission ETV
vector 135 RSUExampleScenario.node[27].veinsmobility posx ETV
vector 136 RSUExampleScenario.node[27].veinsmobility posy ETV
vector 137 RSUExampleScenario.node[27].veinsmobility speed ETV
vector 138 RSUExampleScenario.node[27].veinsmobility acceleration ETV
vector 139 RSUExampleScenario.node[27].veinsmobility co2emission ETV
vector 140 RSUExampleScenario.node[28].veinsmobility posx ETV
vector 141 RSUExampleScenario.node[28].veinsmobility posy ETV
vector 142 RSUExampleScenario.node[28].veinsmobility speed ETV
vector 143 RSUExampleScenario.node[28].veinsmobility acceleration ETV
vector 144 RSUExampleScenario.node[28].veinsmobility co2emission ETV
vector 145 RSUExampleScenario.node[29].veinsmobility posx ETV
vector 146 RSUExampleScenario.node[29].veinsmobility posy ETV
vector 147 RSUExampleScenario.node[29].veinsmobility speed ETV
vector 148 RSUExampleScenario.node[29].veinsmobility acceleration ETV
vector 149 RSUExampleScenario.node[29].veinsmobility co2emission ETV
vector 150 RSUExampleScenario.node[30].veinsmobility posx ETV
vector 151 RSUExampleScenario.node[30].veinsmobility posy ETV
vector 152 RSUExampleScenario.node[30].veinsmobility speed ETV
vector 153 RSUExampleScenario.node[30].veinsmobility acceleration ETV
vector 154 RSUExampleScenario.node[30].veinsmobility co2emission ETV
vector 155 RSUExampleScenario.node[31].veinsmobility posx ETV
vector 156 RSUExampleScenario.node[31].veinsmobility posy ETV
vector 157 RSUExampleScenario.node[31].veinsmobility speed ETV
vector 158 RSUExampleScenario.node[31].veinsmobility acceleration ETV
vector 159 RSUExampleScenario.node[31].veinsmobility co2emission ETV
vector 160 RSUExampleScenario.node[32].veinsmobility posx ETV
vector 161 RSUExampleScenario.node[32].veinsmobility posy ETV
vector 162 RSUExampleScenario.node[32].veinsmobility speed ETV
vector 163 RSUExampleScenario.node[32].veinsmobility acceleration ETV
vector 164 RSUExampleScenario.node[32].veinsmobility co2emission ETV
vector 165 RSUExampleScenario.node[33].veinsmobility posx ETV
vector 166 RSUExampleScenario.node[33].veinsmobility posy ETV
vector 167 RSUExampleScenario.node[33].veinsmobility speed ETV
vector 168 RSUExampleScenario.node[33].veinsmobility acceleration ETV
vector 169 RSUExampleScenario.node[33].veinsmobility co2emission ETV
vector 170 RSUExampleScenario.node[34].veinsmobility posx ETV
vector 171 RSUExampleScenario.node[34].veinsmobility posy ETV
vector 172 RSUExampleScenario.node[34].veinsmobility speed ETV
vector 173 RSUExampleScenario.node[34].veinsmobility acceleration ETV
vector 174 RSUExampleScenario.node[34].veinsmobility co2emission ETV
vector 175 RSUExampleScenario.node[35].veinsmobility posx ETV
vector 176 RSUExampleScenario.node[35].veinsmobility posy ETV
vector 177 RSUExampleScenario.node[35].veinsmobility speed ETV
vector 178 RSUExampleScenario.node[35].veinsmobility acceleration ETV
vector 179 RSUExampleScenario.node[35].veinsmobility co2emission ETV
vector 180 RSUExampleScenario.node[36].veinsmobility posx ETV
vector 181 RSUExampleScenario.node[36].veinsmobility posy ETV
vector 182 RSUExampleScenario.node[36].veinsmobility speed ETV
vector 183 RSUExampleScenario.node[36].veinsmobility acceleration ETV
vector 184 RSUExampleScenario.node[36].veinsmobility co2emission ETV
vector 185 RSUExampleScenario.node[37].veinsmobility posx ETV
vector 186 RSUExampleScenario.node[37].veinsmobility posy ETV
vector 187 RSUExampleScenario.node[37].veinsmobility speed ETV
vector 188 RSUExampleScenario.node[37].veinsmobility acceleration ETV
vector 189 RSUExampleScenario.node[37].veinsmobility co2emission ETV
vector 190 RSUExampleScenario.node[38].veinsmobility posx ETV
vector 191 RSUExampleScenario.node[38].veinsmobility posy ETV
vector 192 RSUExampleScenario.node[38].veinsmobility speed ETV
vector 193 RSUExampleScenario.node[38].veinsmobility acceleration ETV
vector 194 RSUExampleScenario.node[38].veinsmobility co2emission ETV
vector 195 RSUExampleScenario.node[39].veinsmobility posx ETV
vector 196 RSUExampleScenario.node[39].veinsmobility posy ETV
vector 197 RSUExampleScenario.node[39].veinsmobility speed ETV
vector 198 RSUExampleScenario.node[39].veinsmobility acceleration ETV
vector 199 RSUExampleScenario.node[39].veinsmobility co2emission ETV
vector 200 RSUExampleScenario.node[40].veinsmobility posx ETV
vector 201 RSUExampleScenario.node[40].veinsmobility posy ETV
vector 202 RSUExampleScenario.node[40].veinsmobility speed ETV
vector 203 RSUExampleScenario.node[40].veinsmobility acceleration ETV
vector 204 RSUExampleScenario.node[40].veinsmobility co2emission ETV
vector 205 RSUExampleScenario.node[41].veinsmobility posx ETV
vector 206 RSUExampleScenario.node[41].veinsmobility posy ETV
vector 207 RSUExampleScenario.node[41].veinsmobility speed ETV
vector 208 RSUExampleScenario.node[41].veinsmobility acceleration ETV
vector 209 RSUExampleScenario.node[41].veinsmobility co2emission ETV
vector 210 RSUExampleScenario.node[42].veinsmobility posx ETV
vector 211 RSUExampleScenario.node[42].veinsmobility posy ETV
vector 212 RSUExampleScenario.node[42].veinsmobility speed ETV
vector 213 RSUExampleScenario.node[42].veinsmobility acceleration ETV
vector 214 RSUExampleScenario.node[42].veinsmobility co2emission ETV
vector 215 RSUExampleScenario.node[43].veinsmobility posx ETV
vector 216 RSUExampleScenario.node[43].veinsmobility posy ETV
vector 217 RSUExampleScenario.node[43].veinsmobility speed ETV
vector 218 RSUExampleScenario.node[43].veinsmobility acceleration ETV
vector 219 RSUExampleScenario.node[43].veinsmobility co2emission ETV
vector 220 RSUExampleScenario.node[44].veinsmobility posx ETV
vector 221 RSUExampleScenario.node[44].veinsmobility posy ETV
vector 222 RSUExampleScenario.node[44].veinsmobility speed ETV
vector 223 RSUExampleScenario.node[44].veinsmobility acceleration ETV
vector 224 RSUExampleScenario.node[44].veinsmobility co2emission ETV
vector 225 RSUExampleScenario.node[45].veinsmobility posx ETV
vector 226 RSUExampleScenario.node[45].veinsmobility posy ETV
vector 227 RSUExampleScenario.node[45].veinsmobility speed ETV
vector 228 RSUExampleScenario.node[45].veinsmobility acceleration ETV
vector 229 RSUExampleScenario.node[45].veinsmobility co2emission ETV
vector 230 RSUExampleScenario.node[46].veinsmobility posx ETV
vector 231 RSUExampleScenario.node[46].veinsmobility posy ETV
vector 232 RSUExampleScenario.node[46].veinsmobility speed ETV
vector 233 RSUExampleScenario.node[46].veinsmobility acceleration ETV
vector 234 RSUExampleScenario.node[46].veinsmobility co2emission ETV
vector 235 RSUExampleScenario.node[47].veinsmobility posx ETV
vector 236 RSUExampleScenario.node[47].veinsmobility posy ETV
vector 237 RSUExampleScenario.node[47].veinsmobility speed ETV
vector 238 RSUExampleScenario.node[47].veinsmobility acceleration ETV
vector 239 RSUExampleScenario.node[47].veinsmobility co2emission ETV
vector 240 RSUExampleScenario.node[48].veinsmobility posx ETV
vector 241 RSUExampleScenario.node[48].veinsmobility posy ETV
vector 242 RSUExampleScenario.node[48].veinsmobility speed ETV
vector 243 RSUExampleScenario.node[48].veinsmobility acceleration ETV
vector 244 RSUExampleScenario.node[48].veinsmobility co2emission ETV
vector 245 RSUExampleScenario.node[49].veinsmobility posx ETV
vector 246 RSUExampleScenario.node[49].veinsmobility posy ETV
vector 247 RSUExampleScenario.node[49].veinsmobility speed ETV
vector 248 RSUExampleScenario.node[49].veinsmobility acceleration ETV
vector 249 RSUExampleScenario.node[49].veinsmobility co2emission ETV
vector 250 RSUExampleScenario.node[50].veinsmobility posx ETV
vector 251 RSUExampleScenario.node[50].veinsmobility posy ETV
vector 252 RSUExampleScenario.node[50].veinsmobility speed ETV
vector 253 RSUExampleScenario.node[50].veinsmobility acceleration ETV
vector 254 RSUExampleScenario.node[50].veinsmobility co2emission ETV
vector 255 RSUExampleScenario.node[51].veinsmobility posx ETV
vector 256 RSUExampleScenario.node[51].veinsmobility posy ETV
vector 257 RSUExampleScenario.node[51].veinsmobility speed ETV
vector 258 RSUExampleScenario.node[51].veinsmobility acceleration ETV
vector 259 RSUExampleScenario.node[51].veinsmobility co2emission ETV
vector 260 RSUExampleScenario.node[52].veinsmobility posx ETV
vector 261 RSUExampleScenario.node[52].veinsmobility posy ETV
vector 262 RSUExampleScenario.node[52].veinsmobility speed ETV
vector 263 RSUExampleScenario.node[52].veinsmobility acceleration ETV
vector 264 RSUExampleScenario.node[52].veinsmobility co2emission ETV
vector 265 RSUExampleScenario.node[53].veinsmobility posx ETV
vector 266 RSUExampleScenario.node[53].veinsmobility posy ETV
vector 267 RSUExampleScenario.node[53].veinsmobility speed ETV
vector 268 RSUExampleScenario.node[53].veinsmobility acceleration ETV
vector 269 RSUExampleScenario.node[53].veinsmobility co2emission ETV
vector 270 RSUExampleScenario.node[54].veinsmobility posx ETV
vector 271 RSUExampleScenario.node[54].veinsmobility posy ETV
vector 272 RSUExampleScenario.node[54].veinsmobility speed ETV
vector 273 RSUExampleScenario.node[54].veinsmobility acceleration ETV
vector 274 RSUExampleScenario.node[54].veinsmobility co2emission ETV
vector 275 RSUExampleScenario.node[55].veinsmobility posx ETV
vector 276 RSUExampleScenario.node[55].veinsmobility posy ETV
vector 277 RSUExampleScenario.node[55].veinsmobility speed ETV
vector 278 RSUExampleScenario.node[55].veinsmobility acceleration ETV
vector 279 RSUExampleScenario.node[55].veinsmobility co2emission ETV
vector 280 RSUExampleScenario.node[56].veinsmobility posx ETV
vector 281 RSUExampleScenario.node[56].veinsmobility posy ETV
vector 282 RSUExampleScenario.node[56].veinsmobility speed ETV
vector 283 RSUExampleScenario.node[56].veinsmobility acceleration ETV
vector 284 RSUExampleScenario.node[56].veinsmobility co2emission ETV
vector 285 RSUExampleScenario.node[57].veinsmobility posx ETV
vector 286 RSUExampleScenario.node[57].veinsmobility posy ETV
vector 287 RSUExampleScenario.node[57].veinsmobility speed ETV
vector 288 RSUExampleScenario.node[57].veinsmobility acceleration ETV
vector 289 RSUExampleScenario.node[57].veinsmobility co2emission ETV
vector 290 RSUExampleScenario.node[58].veinsmobility posx ETV
vector 291 RSUExampleScenario.node[58].veinsmobility posy ETV
vector 292 RSUExampleScenario.node[58].veinsmobility speed ETV
vector 293 RSUExampleScenario.node[58].veinsmobility acceleration ETV
vector 294 RSUExampleScenario.node[58].veinsmobility co2emission ETV
vector 295 RSUExampleScenario.node[59].veinsmobility posx ETV
vector 296 RSUExampleScenario.node[59].veinsmobility posy ETV
vector 297 RSUExampleScenario.node[59].veinsmobility speed ETV
vector 298 RSUExampleScenario.node[59].veinsmobility acceleration ETV
vector 299 RSUExampleScenario.node[59].veinsmobility co2emission ETV
vector 300 RSUExampleScenario.node[60].veinsmobility posx ETV
vector 301 RSUExampleScenario.node[60].veinsmobility posy ETV
vector 302 RSUExampleScenario.node[60].veinsmobility speed ETV
vector 303 RSUExampleScenario.node[60].veinsmobility acceleration ETV
vector 304 RSUExampleScenario.node[60].veinsmobility co2emission ETV
vector 305 RSUExampleScenario.node[61].veinsmobility posx ETV
vector 306 RSUExampleScenario.node[61].veinsmobility posy ETV
vector 307 RSUExampleScenario.node[61].veinsmobility speed ETV
vector 308 RSUExampleScenario.node[61].veinsmobility acceleration ETV
vector 309 RSUExampleScenario.node[61].veinsmobility co2emission ETV
vector 310 RSUExampleScenario.node[62].veinsmobility posx ETV
vector 311 RSUExampleScenario.node[62].veinsmobility posy ETV
vector 312 RSUExampleScenario.node[62].veinsmobility speed ETV
vector 313 RSUExampleScenario.node[62].veinsmobility acceleration ETV
vector 314 RSUExampleScenario.node[62].veinsmobility co2emission ETV
vector 315 RSUExampleScenario.node[63].veinsmobility posx ETV
vector 316 RSUExampleScenario.node[63].veinsmobility posy ETV
vector 317 RSUExampleScenario.node[63].veinsmobility speed ETV
vector 318 RSUExampleScenario.node[63].veinsmobility acceleration ETV
vector 319 RSUExampleScenario.node[63].veinsmobility co2emission ETV
vector 320 RSUExampleScenario.node[64].veinsmobility posx ETV
vector 321 RSUExampleScenario.node[64].veinsmobility posy ETV
vector 322 RSUExampleScenario.node[64].veinsmobility speed ETV
vector 323 RSUExampleScenario.node[64].veinsmobility acceleration ETV
vector 324 RSUExampleScenario.node[64].veinsmobility co2emission ETV
vector 325 RSUExampleScenario.node[65].veinsmobility posx ETV
vector 326 RSUExampleScenario.node[65].veinsmobility posy ETV
vector 327 RSUExampleScenario.node[65].veinsmobility speed ETV
vector 328 RSUExampleScenario.node[65].veinsmobility acceleration ETV
vector 329 RSUExampleScenario.node[65].veinsmobility co2emission ETV
vector 330 RSUExampleScenario.node[66].veinsmobility posx ETV
vector 331 RSUExampleScenario.node[66].veinsmobility posy ETV
vector 332 RSUExampleScenario.node[66].veinsmobility speed ETV
vector 333 RSUExampleScenario.node[66].veinsmobility acceleration ETV
vector 334 RSUExampleScenario.node[66].veinsmobility co2emission ETV
vector 335 RSUExampleScenario.node[67].veinsmobility posx ETV
vector 336 RSUExampleScenario.node[67].veinsmobility posy ETV
vector 337 RSUExampleScenario.node[67].veinsmobility speed ETV
vector 338 RSUExampleScenario.node[67].veinsmobility acceleration ETV
vector 339 RSUExampleScenario.node[67].veinsmobility co2emission ETV
vector 340 RSUExampleScenario.node[68].veinsmobility posx ETV
vector 341 RSUExampleScenario.node[68].veinsmobility posy ETV
vector 342 RSUExampleScenario.node[68].veinsmobility speed ETV
vector 343 RSUExampleScenario.node[68].veinsmobility acceleration ETV
vector 344 RSUExampleScenario.node[68].veinsmobility co2emission ETV
vector 345 RSUExampleScenario.node[69].veinsmobility posx ETV
vector 346 RSUExampleScenario.node[69].veinsmobility posy ETV
vector 347 RSUExampleScenario.node[69].veinsmobility speed ETV
vector 348 RSUExampleScenario.node[69].veinsmobility acceleration ETV
vector 349 RSUExampleScenario.node[69].veinsmobility co2emission ETV
vector 350 RSUExampleScenario.node[70].veinsmobility posx ETV
vector 351 RSUExampleScenario.node[70].veinsmobility posy ETV
vector 352 RSUExampleScenario.node[70].veinsmobility speed ETV
vector 353 RSUExampleScenario.node[70].veinsmobility acceleration ETV
vector 354 RSUExampleScenario.node[70].veinsmobility co2emission ETV
vector 355 RSUExampleScenario.node[71].veinsmobility posx ETV
vector 356 RSUExampleScenario.node[71].veinsmobility posy ETV
vector 357 RSUExampleScenario.node[71].veinsmobility speed ETV
vector 358 RSUExampleScenario.node[71].veinsmobility acceleration ETV
vector 359 RSUExampleScenario.node[71].veinsmobility co2emission ETV
vector 360 RSUExampleScenario.node[72].veinsmobility posx ETV
vector 361 RSUExampleScenario.node[72].veinsmobility posy ETV
vector 362 RSUExampleScenario.node[72].veinsmobility speed ETV
vector 363 RSUExampleScenario.node[72].veinsmobility acceleration ETV
vector 364 RSUExampleScenario.node[72].veinsmobility co2emission ETV
vector 365 RSUExampleScenario.node[73].veinsmobility posx ETV
vector 366 RSUExampleScenario.node[73].veinsmobility posy ETV
vector 367 RSUExampleScenario.node[73].veinsmobility speed ETV
vector 368 RSUExampleScenario.node[73].veinsmobility acceleration ETV
vector 369 RSUExampleScenario.node[73].veinsmobility co2emission ETV
vector 370 RSUExampleScenario.node[74].veinsmobility posx ETV
vector 371 RSUExampleScenario.node[74].veinsmobility posy ETV
vector 372 RSUExampleScenario.node[74].veinsmobility speed ETV
vector 373 RSUExampleScenario.node[74].veinsmobility acceleration ETV
vector 374 RSUExampleScenario.node[74].veinsmobility co2emission ETV
vector 375 RSUExampleScenario.node[75].veinsmobility posx ETV
vector 376 RSUExampleScenario.node[75].veinsmobility posy ETV
vector 377 RSUExampleScenario.node[75].veinsmobility speed ETV
vector 378 RSUExampleScenario.node[75].veinsmobility acceleration ETV
vector 379 RSUExampleScenario.node[75].veinsmobility co2emission ETV
vector 380 RSUExampleScenario.node[76].veinsmobility posx ETV
vector 381 RSUExampleScenario.node[76].veinsmobility posy ETV
vector 382 RSUExampleScenario.node[76].veinsmobility speed ETV
vector 383 RSUExampleScenario.node[76].veinsmobility acceleration ETV
vector 384 RSUExampleScenario.node[76].veinsmobility co2emission ETV
vector 385 RSUExampleScenario.node[77].veinsmobility posx ETV
vector 386 RSUExampleScenario.node[77].veinsmobility posy ETV
vector 387 RSUExampleScenario.node[77].veinsmobility speed ETV
vector 388 RSUExampleScenario.node[77].veinsmobility acceleration ETV
vector 389 RSUExampleScenario.node[77].veinsmobility co2emission ETV
vector 390 RSUExampleScenario.node[78].veinsmobility posx ETV
vector 391 RSUExampleScenario.node[78].veinsmobility posy ETV
vector 392 RSUExampleScenario.node[78].veinsmobility speed ETV
vector 393 RSUExampleScenario.node[78].veinsmobility acceleration ETV
vector 394 RSUExampleScenario.node[78].veinsmobility co2emission ETV
0	11	1	2414.8476884116
0	26	2	2411.8243290941
0	41	3	2407.1592244543
0	56	4	2402.288200066
0	76	5	2396.1394374635
0	97	6	2388.6993875942
0	117	7	2379.889221533
0	142	8	2370.1207192459
0	168	9	2360.3141803208
0	194	10	2350.5099475634
0	225	11	2341.0010868867
0	256	12	2334.5620136983
0	288	13	2337.6803779466
0	322	14	2348.3497968862
0	356	15	2358.6961674725
0	389	16	2371.6616533546
0	425	17	2385.4706804305
0	460	18	2399.3588350668
0	497	19	2412.4541998667
0	535	20	2421.4418196582
0	573	21	2428.417609864
0	611	22	2431.468930052
0	650	23	2433.1513403206
0	689	24	2435.1237040944
0	729	25	2437.2173147583
0	775	26	2438.6437980286
0	818	27	2439.5074353185
0	859	28	2440.517813261
0	903	29	2441.5286354903
0	948	30	2442.5392864447
0	993	31	2443.5505626462
0	1043	32	2444.5611125134
0	1089	33	2445.5724211388
0	1135	34	2446.5834693939
0	1186	35	2447.5934051003
0	1238	36	2448.6036931522
0	1287	37	2449.6148620235
0	1340	38	2450.6248001783
0	1390	39	2449.5880553933
0	1441	40	2448.4757357414
0	1493	41	2447.3635385588
0	1546	42	2446.250303259
0	1599	43	2445.1365203297
0	1653	44	2444.0235521834
0	1708	45	2442.9111769209
0	1761	46	2441.7982721732
0	1820	47	2440.6856421625
0	1876	48	2439.7151308154
0	1932	49	2438.7725309408
0	1995	50	2437.9056889905
0	2053	51	2432.8785054281
0	2115	52	2422.5273191113
0	2179	53	2409.439604845
0	2243	54	2395.517893619
0	2311	55	2381.592286239
0	2380	56	2367.6659531716
0	2450	57	2353.7601239877
0	2524	58	2339.8337569573
0	2601	59	2325.9069679289
0	2677	60	2311.9542202253
0	2758	61	2298.0325140053
0	2840	62	2284.0857072632
0	2920	63	2270.1754193477
0	3002	64	2256.2378749268
0	3093	65	2242.3725172955
0	3185	66	2228.5568932705
0	3281	67	2214.8035730832
0	3378	68	2201.6130456962
0	3476	69	2188.4247624045
0	3574	70	2175.5107078577
0	3678	71	2163.5018647154
0	3778	72	2152.2359160049
0	3878	73	2144.5614629743
0	3980	74	2140.764952604
0	4082	75	2140.3209259163
0	4185	76	2140.3209259163
0	4292	77	2140.3209259163
0	4396	78	2140.3209259163
0	4505	79	2140.3209259163
0	4618	80	2140.3209259163
0	4732	81	2140.3209259163
0	4850	82	2140.3209259163
0	4978	83	2140.3209259163
0	5105	84	2140.3209259163
0	5353	85	2140.3209259163
0	5487	86	2140.3209259163
0	7462	87	2140.3209259163
0	7593	88	2140.3209259163
0	10789	89	2140.3209259163
0	10921	90	2140.3209259163
0	11812	91	2140.3209259163
0	11950	92	2140.3209259163
0	12215	93	2140.3209259163
0	12348	94	2140.3209259163
0	12484	95	2140.3209259163
0	12619	96	2140.3209259163
0	12754	97	2140.3209259163
0	12890	98	2140.3209259163
0	13031	99	2140.3209259163
0	13172	100	2140.3209259163
0	13315	101	2140.3209259163
0	13458	102	2140.3209259163
0	13597	103	2140.3209259163
0	13743	104	2140.3209259163
0	13888	105	2140.3209259163
0	14034	106	2140.3209259163
0	14183	107	2140.3209259163
0	14334	108	2140.3209259163
0	14485	109	2140.3209259163
0	14643	110	2140.3209259163
0	14799	111	2140.3209259163
0	14952	112	2140.3209259163
0	15106	113	2140.3209259163
0	15260	114	2140.3209259163
0	15414	115	2140.3209259163
0	15567	116	2140.3209259163
0	15723	117	2140.3209259163
0	15876	118	2140.3209259163
0	16030	119	2140.3209259163
0	16188	120	2140.3209259163
0	16344	121	2140.3209259163
0	16501	122	2140.3209259163
0	16656	123	2140.3209259163
0	16810	124	2139.2968867624
0	16973	125	2136.7389751441
0	17132	126	2133.0417300543
0	17293	127	2128.0104965516
0	17458	128	2121.6756363601
0	17619	129	2113.9033126336
0	17783	130	2104.7698103111
0	17950	131	2095.2406216187
0	18117	132	2085.7035411549
0	18281	133	2076.1875061716
0	18451	134	2066.6433728429
0	18616	135	2057.1213969737
0	18782	136	2047.5816524108
0	18949	137	2037.6029490368
0	19117	138	2027.6294604754
0	19281	139	2017.6123925993
0	19451	140	2007.6083104342
0	19617	141	1997.5979494115
0	19787	142	1987.5987100747
0	19966	143	1977.6103723238
0	20138	144	1967.6219060847
0	20314	145	1957.6292998412
0	20495	146	1947.6436493916
0	20673	147	1937.6560055723
0	20854	148	1927.9261270026
0	21032	149	1918.1998157738
0	21219	150	1908.4672243788
0	21403	151	1898.7271060897
0	21600	152	1889.0029817786
0	21790	153	1879.2595442766
0	21992	154	1869.5259211212
0	22198	155	1859.791401117
0	22406	156	1850.0585748916
0	22619	157	1840.3230037142
0	22831	158	1830.3485841108
0	23036	159	1820.2447044594
0	23245	160	1810.1357504753
0	23459	161	1800.1565797509
0	23668	162	1790.1948247917
0	23880	163	1780.2356253507
0	24097	164	1770.2829497023
0	24311	165	1760.3182612085
0	24526	166	1750.3436304645
0	24746	167	1740.3949006784
0	24966	168	1730.4253736633
0	25187	169	1720.4740291536
0	25411	170	1710.5161015036
0	25637	171	1700.5673439852
0	25864	172	1690.6008595297
0	26099	173	1680.6657211825
0	26331	174	1670.7168479548
0	26783	175	1660.7644946704
0	27024	176	1650.8062082113
0	30230	177	1640.8385331451
0	30468	178	1630.8767479567
0	36063	179	1620.9255842031
0	36300	180	1611.1428820255
0	37563	181	1601.3302327476
0	37807	182	1591.5133121955
0	38285	183	1581.6885121891
0	38527	184	1571.8622846779
0	38772	185	1562.0312373085
0	39013	186	1551.5881341359
0	39251	187	1541.0370814161
0	39495	188	1530.480022126
0	39737	189	1519.9409731607
0	39979	190	1509.3924763758
0	40228	191	1498.3844079254
0	40469	192	1486.9771838083
0	40713	193	1475.571167993
0	40961	194	1464.1629678771
0	41208	195	1452.7544457492
0	41451	196	1440.5821409714
0	41697	197	1427.9677691719
0	41943	198	1415.3325943742
0	42191	199	1402.6946483905
0	42448	200	1389.3874849548
0	42698	201	1376.1181129244
0	42948	202	1362.843593738
0	43196	203	1349.2626639546
0	43441	204	1335.5171562512
0	43687	205	1321.9099863766
0	43934	206	1308.1959174796
0	44185	207	1294.4765104429
0	44436	208	1280.7334386224
0	44685	209	1266.9794715572
0	44931	210	1253.1660373557
0	45171	211	1239.302028347
0	45415	212	1225.4504268368
0	45662	213	1211.5948054708
0	45901	214	1197.7287409356
0	46146	215	1183.8811326338
0	46637	216	1170.0123573416
0	46874	217	1156.1598086404
0	49906	218	1142.3099602651
0	50137	219	1128.4621744824
0	50869	220	1114.5884608189
0	51104	221	1100.68353174
0	51337	222	1086.7632791927
0	51573	223	1072.8982859981
0	51820	224	1059.0245496976
0	52061	225	1045.1620213153
0	52305	226	1031.2822078768
0	52551	227	1017.4155201112
0	52801	228	1003.5194644295
0	53050	229	989.62155130052
0	53308	230	975.7430130759
0	53562	231	961.86456738459
0	53826	232	947.98366536712
0	54090	233	934.12045007304
0	54353	234	920.27040045895
0	54625	235	906.40268669068
0	54896	236	892.52750769455
0	55163	237	878.64093295904
1	11	1	1578.4613427464
1	26	2	1579.5715045081
1	41	3	1581.5561876604
1	56	4	1586.4898643075
1	76	5	1592.7177137369
1	97	6	1600.2534592729
1	117	7	1609.1769437566
1	142	8	1619.0710908128
1	168	9	1629.0037637418
1	194	10	1638.9341008412
1	225	11	1649.1129276818
1	256	12	1661.0453354148
1	288	13	1673.5713017788
1	322	14	1682.4825292248
1	356	15	1691.8131453674
1	389	16	1695.5671389326
1	425	17	1697.3762977775
1	460	18	1698.7149431584
1	497	19	1699.9531973498
1	535	20	1700.8030368192
1	573	21	1701.4822415169
1	611	22	1709.488976148
1	650	23	1720.5600911779
1	689	24	1733.5392477075
1	729	25	1747.3162704222
1	775	26	1761.1584832035
1	818	27	1775.0702432813
1	859	28	1788.9649324082
1	903	29	1802.8657313576
1	948	30	1816.7641749373
1	993	31	1830.6712168986
1	1043	32	1844.5682703312
1	1089	33	1858.4757581847
1	1135	34	1872.3796654344
1	1186	35	1886.2682729438
1	1238	36	1900.1617258992
1	1287	37	1914.0672918586
1	1340	38	1927.95593304
1	1390	39	1941.8192613758
1	1441	40	1955.7024557721
1	1493	41	1969.5841215905
1	1546	42	1983.4787444612
1	1599	43	1997.3802024601
1	1653	44	2011.2714909082
1	1708	45	2025.1553793969
1	1761	46	2039.0458765477
1	1820	47	2052.9329446238
1	1876	48	2066.8462265795
1	1932	49	2080.7728807703
1	1995	50	2094.6498483503
1	2053	51	2107.3969092406
1	2115	52	2116.410831539
1	2179	53	2120.9360540062
1	2243	54	2120.5048353085
1	2311	55	2120.0344859883
1	2380	56	2119.5641121576
1	2450	57	2119.0944308629
1	2524	58	2118.6240558857
1	2601	59	2118.1536666537
1	2677	60	2117.6824006466
1	2758	61	2117.2121830918
1	2840	62	2116.7411177447
1	2920	63	2116.2712858524
1	3002	64	2115.8005333487
1	3093	65	2114.7955725584
1	3185	66	2112.8364102887
1	3281	67	2110.6440530941
1	3378	68	2106.1704403665
1	3476	69	2101.6975887315
1	3574	70	2096.6391956527
1	3678	71	2089.5697793076
1	3778	72	2082.9376931852
1	3878	73	2078.419863862
1	3980	74	2076.1849181512
1	4082	75	2075.9235266512
1	4185	76	2075.9235266512
1	4292	77	2075.9235266512
1	4396	78	2075.9235266512
1	4505	79	2075.9235266512
1	4618	80	2075.9235266512
1	4732	81	2075.9235266512
1	4850	82	2075.9235266512
1	4978	83	2075.9235266512
1	5105	84	2075.9235266512
1	5353	85	2075.9235266512
1	5487	86	2075.9235266512
1	7462	87	2075.9235266512
1	7593	88	2075.9235266512
1	10789	89	2075.9235266512
1	10921	90	2075.9235266512
1	11812	91	2075.9235266512
1	11950	92	2075.9235266512
1	12215	93	2075.9235266512
1	12348	94	2075.9235266512
1	12484	95	2075.9235266512
1	12619	96	2075.9235266512
1	12754	97	2075.9235266512
1	12890	98	2075.9235266512
1	13031	99	2075.9235266512
1	13172	100	2075.9235266512
1	13315	101	2075.9235266512
1	13458	102	2075.9235266512
1	13597	103	2075.9235266512
1	13743	104	2075.9235266512
1	13888	105	2075.9235266512
1	14034	106	2075.9235266512
1	14183	107	2075.9235266512
1	14334	108	2075.9235266512
1	14485	109	2075.9235266512
1	14643	110	2075.9235266512
1	14799	111	2075.9235266512
1	14952	112	2075.9235266512
1	15106	113	2075.9235266512
1	15260	114	2075.9235266512
1	15414	115	2075.9235266512
1	15567	116	2075.9235266512
1	15723	117	2075.9235266512
1	15876	118	2075.9235266512
1	16030	119	2075.9235266512
1	16188	120	2075.9235266512
1	16344	121	2075.9235266512
1	16501	122	2075.9235266512
1	16656	123	2075.9235266512
1	16810	124	2075.1249021161
1	16973	125	2072.86423006
1	17132	126	2068.9174167952
1	17293	127	2063.5465694079
1	17458	128	2056.7840990741
1	17619	129	2048.4871348105
1	17783	130	2038.7371108737
1	17950	131	2028.5646912949
1	18117	132	2018.3838472413
1	18281	133	2008.2254692623
1	18451	134	1998.0370962676
1	18616	135	1987.8723763861
1	18782	136	1977.7352778362
1	18949	137	1968.0349910427
1	19117	138	1958.3397735637
1	19281	139	1948.6021926794
1	19451	140	1938.8772351909
1	19617	141	1929.1461740322
1	19787	142	1919.4259242518
1	19966	143	1909.7162718913
1	20138	144	1900.0064946283
1	20314	145	1890.2926928708
1	20495	146	1880.5856528329
1	20673	147	1870.8754119454
1	20854	148	1860.9048139649
1	21032	149	1850.9378715828
1	21219	150	1840.9644936612
1	21403	151	1830.9834026285
1	21600	152	1821.0187012684
1	21790	153	1811.034208905
1	21992	154	1801.0597736975
1	22198	155	1791.0844194526
1	22406	156	1781.1108008912
1	22619	157	1771.1343694674
1	22831	158	1761.3842561403
1	23036	159	1751.7881461149
1	23245	160	1742.1872167662
1	23459	161	1732.436735265
1	23668	162	1722.674090636
1	23880	163	1712.913950447
1	24097	164	1703.1602036562
1	24311	165	1693.3946841266
1	24526	166	1683.6194210676
1	24746	167	1673.8695412716
1	24966	168	1664.0992799308
1	25187	169	1654.3468376724
1	25411	170	1644.5879438547
1	25637	171	1634.8380368808
1	25864	172	1625.0707572857
1	26099	173	1615.3341972707
1	26331	174	1605.5841768999
1	26783	175	1595.8307460295
1	27024	176	1586.0715005742
1	30230	177	1576.303054167
1	30468	178	1566.5403799126
1	36063	179	1556.7881147983
1	36300	180	1547.0222159941
1	37563	181	1537.1168000745
1	37807	182	1527.2070725001
1	38285	183	1517.2893909812
1	38527	184	1507.3702684622
1	38772	185	1497.4462805195
1	39013	186	1488.1830884209
1	39251	187	1479.0563710714
1	39495	188	1469.9244580064
1	39737	189	1460.8081239704
1	39979	190	1451.6836175183
1	40228	191	1443.1674592569
1	40469	192	1435.1285502845
1	40713	193	1427.0904928278
1	40961	194	1419.0508960485
1	41208	195	1411.0110723414
1	41451	196	1404.3090573121
1	41697	197	1398.3618894313
1	41943	198	1392.4049137747
1	42191	199	1386.446631616
1	42448	200	1382.0975830667
1	42698	201	1377.816485974
1	42948	202	1373.533728255
1	43196	203	1370.8277648771
1	43441	204	1368.5851151319
1	43687	205	1366.1968603525
1	43934	206	1363.8843669156
1	44185	207	1361.4355469756
1	44436	208	1359.1211598171
1	44685	209	1357.0332691083
1	44931	210	1355.2851031953
1	45171	211	1353.8230178785
1	45415	212	1352.3622410437
1	45662	213	1350.9010402793
1	45901	214	1349.4387381887
1	46146	215	1347.9783824738
1	46637	216	1346.5157945091
1	46874	217	1345.0549177853
1	49906	218	1343.5943258349
1	50137	219	1342.1339514032
1	50869	220	1340.7789801713
1	51104	221	1339.8254993195
1	51337	222	1338.8608552832
1	51573	223	1337.7326606633
1	51820	224	1336.5426108306
1	52061	225	1335.3535223808
1	52305	226	1334.1629512683
1	52551	227	1332.9735060381
1	52801	228	1331.7815417117
1	53050	229	1330.5894180583
1	53308	230	1329.3989563296
1	53562	231	1328.2085025385
1	53826	232	1327.0178380506
1	54090	233	1325.8286906797
1	54353	234	1324.6406726232
1	54625	235	1323.4727394432
1	54896	236	1322.3631898556
1	55163	237	1321.2527289912
2	26	2	4.1061966058897
2	41	3	6.0195495591482
2	56	4	7.7148368984793
2	76	5	9.5879868385225
2	97	6	11.391389363371
2	117	7	13.513839789145
2	142	8	13.99235115225
2	168	9	13.890224446259
2	194	10	13.976677174468
2	225	11	13.994826577434
2	256	12	13.923680325528
2	288	13	13.923542996629
2	322	14	13.91007151508
2	356	15	13.964598868005
2	389	16	13.995233640105
2	425	17	13.952304350403
2	460	18	13.956911946491
2	497	19	11.503494614513
2	535	20	7.0034946145128
2	573	21	7.8970062485022
2	611	22	10.10483181514
2	650	23	11.990706169653
2	689	24	13.981089308816
2	729	25	13.965594365916
2	775	26	13.989059597438
2	818	27	13.956378436291
2	859	28	13.910982951869
2	903	29	13.88918493646
2	948	30	13.908189346099
2	993	31	13.983992603337
2	1043	32	13.971500478752
2	1089	33	13.873081948087
2	1135	34	13.985133641064
2	1186	35	13.886848415199
2	1238	36	13.876205747321
2	1287	37	13.967912819823
2	1340	38	13.871047234884
2	1390	39	13.89239756926
2	1441	40	13.872267716837
2	1493	41	13.999815066161
2	1546	42	13.964707984752
2	1599	43	13.906584702837
2	1653	44	13.922364303169
2	1708	45	13.929034490574
2	1761	46	13.93922677479
2	1820	47	13.924399639922
2	1876	48	13.96850544848
2	1932	49	13.986686690277
2	1995	50	13.935194088209
2	2053	51	13.930097484484
2	2115	52	13.948393711536
2	2179	53	13.882971800906
2	2243	54	13.87138918183
2	2311	55	13.933780807857
2	2380	56	13.942265776542
2	2450	57	13.95140511482
2	2524	58	13.886548467774
2	2601	59	13.920721456567
2	2677	60	13.906796863726
2	2758	61	13.917803910668
2	2840	62	13.924582225601
2	2920	63	13.959688465288
2	3002	64	13.957318032989
2	3093	65	13.940553226951
2	3185	66	13.998651232829
2	3281	67	13.999179182528
2	3378	68	13.886099785112
2	3476	69	13.881868150404
2	3574	70	13.887636745651
2	3678	71	13.978686858166
2	3778	72	11.380505228889
2	3878	73	6.8805052288885
2	3980	74	2.3805052288885
2	4082	75	0
2	4185	76	0
2	4292	77	0
2	4396	78	0
2	4505	79	0
2	4618	80	0
2	4732	81	0
2	4850	82	0
2	4978	83	0
2	5105	84	0
2	5353	85	0
2	5487	86	0
2	7462	87	0
2	7593	88	0
2	10789	89	0
2	10921	90	0
2	11812	91	0
2	11950	92	0
2	12215	93	0
2	12348	94	0
2	12484	95	0
2	12619	96	0
2	12754	97	0
2	12890	98	0
2	13031	99	0
2	13172	100	0
2	13315	101	0
2	13458	102	0
2	13597	103	0
2	13743	104	0
2	13888	105	0
2	14034	106	0
2	14183	107	0
2	14334	108	0
2	14485	109	0
2	14643	110	0
2	14799	111	0
2	14952	112	0
2	15106	113	0
2	15260	114	0
2	15414	115	0
2	15567	116	0
2	15723	117	0
2	15876	118	0
2	16030	119	0
2	16188	120	0
2	16344	121	0
2	16501	122	0
2	16656	123	0
2	16810	124	2.2219942613752
2	16973	125	4.3816652589273
2	17132	126	6.271098397682
2	17293	127	8.1846742143464
2	17458	128	10.238758130733
2	17619	129	12.368734642219
2	17783	130	13.962109271805
2	17950	131	13.914205637665
2	18117	132	13.944517719341
2	18281	133	13.879619830472
2	18451	134	13.987641519217
2	18616	135	13.937885804954
2	18782	136	13.882018232113
2	18949	137	13.87346287617
2	19117	138	13.915164393331
2	19281	139	13.962726174931
2	19451	140	13.991457488488
2	19617	141	13.93669091891
2	19787	142	13.946966261289
2	19966	143	13.874023362922
2	20138	144	13.888220233922
2	20314	145	13.910431938935
2	20495	146	13.915207219925
2	20673	147	13.934733790359
2	20854	148	13.947823643878
2	21032	149	13.938765405121
2	21219	150	13.884018056742
2	21403	151	13.98566509519
2	21600	152	13.928810386665
2	21790	153	13.878287675793
2	21992	154	13.960782518599
2	22198	155	13.994947284004
2	22406	156	13.975011026422
2	22619	157	13.946519697749
2	22831	158	13.954196195363
2	23036	159	13.908575135735
2	23245	160	13.893555851928
2	23459	161	13.925646835428
2	23668	162	13.888643742399
2	23880	163	13.956999772072
2	24097	164	13.877062078733
2	24311	165	13.932049612158
2	24526	166	13.972256193364
2	24746	167	13.873275855898
2	24966	168	13.931230680684
2	25187	169	13.926209465729
2	25411	170	13.898754838682
2	25637	171	13.947313222338
2	25864	172	13.961593384231
2	26099	173	13.917843037636
2	26331	174	13.919741549029
2	26783	175	13.914632304031
2	27024	176	13.937833442583
2	30230	177	13.940750114343
2	30468	178	13.926133309726
2	36063	179	13.909638810402
2	36300	180	13.93505833046
2	37563	181	13.960441317607
2	37807	182	13.885295731109
2	38285	183	13.905790732703
2	38527	184	13.983546870472
2	38772	185	13.97258714041
2	39013	186	13.942212230482
2	39251	187	13.950421822323
2	39495	188	13.942484037369
2	39737	189	13.924030080463
2	39979	190	13.910504624471
2	40228	191	13.913169015311
2	40469	192	13.878228765368
2	40713	193	13.990578826296
2	40961	194	13.945934779255
2	41208	195	13.918395916531
2	41451	196	13.873847689573
2	41697	197	13.941343907136
2	41943	198	13.972160039819
2	42191	199	13.947741319139
2	42448	200	13.939983172731
2	42698	201	13.913097050365
2	42948	202	13.878054136415
2	43196	203	13.87123831376
2	43441	204	13.965837090991
2	43687	205	13.95118741265
2	43934	206	13.873218675107
2	44185	207	13.937300050126
2	44436	208	13.870528818814
2	44685	209	13.894732869298
2	44931	210	13.974751957422
2	45171	211	13.976185514266
2	45415	212	13.948040901108
2	45662	213	13.90066479682
2	45901	214	13.874626426769
2	46146	215	13.999132708127
2	46637	216	13.982017293202
2	46874	217	13.891437354072
2	49906	218	13.903199838763
2	50137	219	13.873872488737
2	50869	220	13.948803576236
2	51104	221	13.929670773684
2	51337	222	13.95546907637
2	51573	223	13.886966226939
2	51820	224	13.887709296707
2	52061	225	13.888012581994
2	52305	226	13.944214367676
2	52551	227	13.962081793409
2	52801	228	13.978639196111
2	53050	229	13.961933068947
2	53308	230	13.980294604471
2	53562	231	13.872238683212
2	53826	232	13.919443334749
2	54090	233	13.940165918074
2	54353	234	13.89567446223
2	54625	235	13.983689642705
2	54896	236	13.992987664973
2	55163	237	13.918710266522
3	41	3	1.9133529532584
3	56	4	1.6952873393311
3	76	5	1.8731499400432
3	97	6	1.8034025248489
3	117	7	2.1224504257739
3	142	8	0.47851136310433
3	168	9	-0.1021267059911
3	194	10	0.086452728209551
3	225	11	0.018149402965792
3	256	12	-0.071146251906175
3	288	13	-0.0001373288989992
3	322	14	-0.013471481548622
3	356	15	0.054527352924923
3	389	16	0.03063477210002
3	425	17	-0.04292928970186
3	460	18	0.0046075960877356
3	497	19	-2.4534173319781
3	535	20	-4.5
3	573	21	0.8935116339894
3	611	22	2.2078255666373
3	650	23	1.8858743545134
3	689	24	1.9903831391631
3	729	25	-0.01549494290026
3	775	26	0.023465231521987
3	818	27	-0.032681161146611
3	859	28	-0.045395484422334
3	903	29	-0.021798015409148
3	948	30	0.019004409639164
3	993	31	0.075803257238585
3	1043	32	-0.012492124584968
3	1089	33	-0.098418530665803
3	1135	34	0.11205169297755
3	1186	35	-0.098285225864965
3	1238	36	-0.01064266787842
3	1287	37	0.091707072502468
3	1340	38	-0.096865584938786
3	1390	39	0.021350334375166
3	1441	40	-0.020129852422979
3	1493	41	0.12754734932445
3	1546	42	-0.035107081409079
3	1599	43	-0.058123281914741
3	1653	44	0.015779600332026
3	1708	45	0.0066701874043797
3	1761	46	0.010192284216172
3	1820	47	-0.014827134867664
3	1876	48	0.044105808557942
3	1932	49	0.018181241797283
3	1995	50	-0.051492602068466
3	2053	51	-0.0050966037251055
3	2115	52	0.018296227052343
3	2179	53	-0.065421910630539
3	2243	54	-0.011582619075197
3	2311	55	0.062391626026946
3	2380	56	0.0084849686850799
3	2450	57	0.0091393382777465
3	2524	58	-0.064856647045817
3	2601	59	0.034172988792415
3	2677	60	-0.013924592840485
3	2758	61	0.011007046941668
3	2840	62	0.0067783149331806
3	2920	63	0.035106239686721
3	3002	64	-0.0023704322986315
3	3093	65	-0.016764806038699
3	3185	66	0.058098005878273
3	3281	67	0.0005279496987356
3	3378	68	-0.11307939741528
3	3476	69	-0.0042316347081215
3	3574	70	0.0057685952470639
3	3678	71	0.091050112515221
3	3778	72	-2.598181629278
3	3878	73	-4.5
3	3980	74	-4.5
3	4082	75	-2.3805052288885
3	4185	76	0
3	4292	77	0
3	4396	78	0
3	4505	79	0
3	4618	80	0
3	4732	81	0
3	4850	82	0
3	4978	83	0
3	5105	84	0
3	5353	85	0
3	5487	86	0
3	7462	87	0
3	7593	88	0
3	10789	89	0
3	10921	90	0
3	11812	91	0
3	11950	92	0
3	12215	93	0
3	12348	94	0
3	12484	95	0
3	12619	96	0
3	12754	97	0
3	12890	98	0
3	13031	99	0
3	13172	100	0
3	13315	101	0
3	13458	102	0
3	13597	103	0
3	13743	104	0
3	13888	105	0
3	14034	106	0
3	14183	107	0
3	14334	108	0
3	14485	109	0
3	14643	110	0
3	14799	111	0
3	14952	112	0
3	15106	113	0
3	15260	114	0
3	15414	115	0
3	15567	116	0
3	15723	117	0
3	15876	118	0
3	16030	119	0
3	16188	120	0
3	16344	121	0
3	16501	122	0
3	16656	123	0
3	16810	124	2.2219942613752
3	16973	125	2.1596709975521
3	17132	126	1.8894331387547
3	17293	127	1.9135758166644
3	17458	128	2.0540839163866
3	17619	129	2.1299765114859
3	17783	130	1.593374629586
3	17950	131	-0.047903634139804
3	18117	132	0.030312081675511
3	18281	133	-0.064897888868581
3	18451	134	0.10802168874536
3	18616	135	-0.0497557142633
3	18782	136	-0.055867572841235
3	18949	137	-0.0085553559428089
3	19117	138	0.041701517160982
3	19281	139	0.047561781599653
3	19451	140	0.028731313557364
3	19617	141	-0.054766569577623
3	19787	142	0.0102753423783
3	19966	143	-0.0729428983666
3	20138	144	0.014196870999875
3	20314	145	0.022211705013179
3	20495	146	0.0047752809897066
3	20673	147	0.019526570434682
3	20854	148	0.013089853518178
3	21032	149	-0.0090582387568432
3	21219	150	-0.054747348378879
3	21403	151	0.10164703844814
3	21600	152	-0.056854708525352
3	21790	153	-0.050522710871883
3	21992	154	0.082494842805898
3	22198	155	0.034164765405004
3	22406	156	-0.019936257582158
3	22619	157	-0.028491328672972
3	22831	158	0.0076764976140122
3	23036	159	-0.045621059627738
3	23245	160	-0.015019283806906
3	23459	161	0.032090983500238
3	23668	162	-0.037003093028906
3	23880	163	0.068356029673014
3	24097	164	-0.079937693339307
3	24311	165	0.054987533425447
3	24526	166	0.04020658120513
3	24746	167	-0.098980337465182
3	24966	168	0.057954824785702
3	25187	169	-0.0050212149554856
3	25411	170	-0.027454627046827
3	25637	171	0.0485583836562
3	25864	172	0.014280161892529
3	26099	173	-0.043750346594024
3	26331	174	0.0018985113920635
3	26783	175	-0.005109244997147
3	27024	176	0.023201138551812
3	30230	177	0.0029166717594489
3	30468	178	-0.014616804616525
3	36063	179	-0.01649449932389
3	36300	180	0.025419520058204
3	37563	181	0.025382987146731
3	37807	182	-0.075145586498547
3	38285	183	0.020495001594536
3	38527	184	0.077756137768738
3	38772	185	-0.010959730062169
3	39013	186	-0.030374909928069
3	39251	187	0.0082095918408598
3	39495	188	-0.0079377849539739
3	39737	189	-0.018453956905287
3	39979	190	-0.013525455992204
3	40228	191	0.0026643908396373
3	40469	192	-0.034940249943174
3	40713	193	0.11235006092815
3	40961	194	-0.044644047040492
3	41208	195	-0.027538862724324
3	41451	196	-0.04454822695814
3	41697	197	0.067496217563749
3	41943	198	0.030816132682375
3	42191	199	-0.024418720679824
3	42448	200	-0.0077581464080136
3	42698	201	-0.026886122366413
3	42948	202	-0.035042913949583
3	43196	203	-0.0068158226553336
3	43441	204	0.094598777231294
3	43687	205	-0.014649678340648
3	43934	206	-0.077968737543561
3	44185	207	0.06408137501916
3	44436	208	-0.066771231312305
3	44685	209	0.024204050484114
3	44931	210	0.08001908812439
3	45171	211	0.0014335568435495
3	45415	212	-0.028144613157492
3	45662	213	-0.047376104288269
3	45901	214	-0.026038370050955
3	46146	215	0.12450628135819
3	46637	216	-0.017115414924918
3	46874	217	-0.090579939130695
3	49906	218	0.011762484691571
3	50137	219	-0.029327350025996
3	50869	220	0.074931087498554
3	51104	221	-0.019132802551614
3	51337	222	0.025798302686308
3	51573	223	-0.068502849431242
3	51820	224	0.00074306976748595
3	52061	225	0.00030328528722734
3	52305	226	0.05620178568177
3	52551	227	0.01786742573371
3	52801	228	0.016557402701583
3	53050	229	-0.016706127163488
3	53308	230	0.018361535524019
3	53562	231	-0.1080559212598
3	53826	232	0.047204651536886
3	54090	233	0.020722583325115
3	54353	234	-0.044491455843673
3	54625	235	0.088015180474613
3	54896	236	0.0092980222683394
3	55163	237	-0.074277398451231
4	41	3	4.1962556146115
4	56	4	4.6765885426193
4	76	5	5.9822455727343
4	97	6	6.7469998477461
4	117	7	8.9023657158011
4	142	8	3.651678681686
4	168	9	1.6857621818206
4	194	10	2.3276633668785
4	225	11	2.0995306276608
4	256	12	1.7923040941768
4	288	13	2.0305681317735
4	322	14	1.9844951865828
4	356	15	2.2187318873595
4	389	16	2.1416854339172
4	425	17	1.8896148890835
4	460	18	2.0499339673421
4	497	19	0.973
4	535	20	0.973
4	573	21	3.236958348016
4	611	22	7.0694109561587
4	650	23	7.2974163894139
4	689	24	8.7433911631671
4	729	25	1.9831721788576
4	775	26	2.116835898497
4	818	27	1.9244585801898
4	859	28	1.8775583559564
4	903	29	1.9545657515643
4	948	30	2.0931646705581
4	993	31	2.2926746988581
4	1043	32	1.993865292131
4	1089	33	1.6968396252803
4	1135	34	2.4149847823944
4	1186	35	1.6983583398882
4	1238	36	1.9906198998388
4	1287	37	2.3442713071536
4	1340	38	1.7018725964397
4	1390	39	2.0993392475273
4	1441	40	1.9585122345881
4	1493	41	2.4691677522194
4	1546	42	1.9170802753567
4	1599	43	1.8345014514108
4	1653	44	2.0838538984303
4	1708	45	2.0539801513469
4	1761	46	2.0668686152862
4	1820	47	1.9813596940184
4	1876	48	2.1840996762636
4	1932	49	2.0987681125428
4	1995	50	1.8592856847688
4	2053	51	2.0145873760113
4	2115	52	2.0950692067684
4	2179	53	1.8080099866508
4	2243	54	1.9870007069688
4	2311	55	2.2415869227426
4	2380	56	2.0614496349521
4	2450	57	2.0646020593826
4	2524	58	1.8102089718445
4	2601	59	2.1453880261281
4	2677	60	1.9826536733129
4	2758	61	2.0673636130683
4	2840	62	2.0538817544551
4	2920	63	2.1528270365066
4	3002	64	2.0265038417738
4	3093	65	1.9764402783138
4	3185	66	2.2347131127692
4	3281	67	2.0405446651404
4	3378	68	1.6487905152147
4	3476	69	2.0126291187762
4	3574	70	2.0466796925005
4	3678	71	2.3433989621326
4	3778	72	0.973
4	3878	73	0.973
4	3980	74	0.973
4	4082	75	0.973
4	4185	76	0.973
4	4292	77	0.973
4	4396	78	0.973
4	4505	79	0.973
4	4618	80	0.973
4	4732	81	0.973
4	4850	82	0.973
4	4978	83	0.973
4	5105	84	0.973
4	5353	85	0.973
4	5487	86	0.973
4	7462	87	0.973
4	7593	88	0.973
4	10789	89	0.973
4	10921	90	0.973
4	11812	91	0.973
4	11950	92	0.973
4	12215	93	0.973
4	12348	94	0.973
4	12484	95	0.973
4	12619	96	0.973
4	12754	97	0.973
4	12890	98	0.973
4	13031	99	0.973
4	13172	100	0.973
4	13315	101	0.973
4	13458	102	0.973
4	13597	103	0.973
4	13743	104	0.973
4	13888	105	0.973
4	14034	106	0.973
4	14183	107	0.973
4	14334	108	0.973
4	14485	109	0.973
4	14643	110	0.973
4	14799	111	0.973
4	14952	112	0.973
4	15106	113	0.973
4	15260	114	0.973
4	15414	115	0.973
4	15567	116	0.973
4	15723	117	0.973
4	15876	118	0.973
4	16030	119	0.973
4	16188	120	0.973
4	16344	121	0.973
4	16501	122	0.973
4	16656	123	0.973
4	16810	124	2.4080817491368
4	16973	125	3.6097150181135
4	17132	126	4.2908662920557
4	17293	127	5.3300190940896
4	17458	128	6.7716083595646
4	17619	129	8.2306431470796
4	17783	130	7.3964630212997
4	17950	131	1.8694407969886
4	18117	132	2.1350370330868
4	18281	133	1.8094749832879
4	18451	134	2.4017242150946
4	18616	135	1.8653612770894
4	18782	136	1.8398927616686
4	18949	137	1.9973272185625
4	19117	138	2.1700231934041
4	19281	139	2.1950764783891
4	19451	140	2.1348521217125
4	19617	141	1.848423466467
4	19787	142	2.0679571445659
4	19966	143	1.7820942605596
4	20138	144	2.0749497938408
4	20314	145	2.1041555485124
4	20495	146	2.0461934569666
4	20673	147	2.0977460374518
4	20854	148	2.0775076200446
4	21032	149	2.0021532082224
4	21219	150	1.8438174528787
4	21403	151	2.3799842198344
4	21600	152	1.8407138090759
4	21790	153	1.8574406286347
4	21992	154	2.3123894181885
4	22198	155	2.1535598612525
4	22406	156	1.9691423592976
4	22619	157	1.9376113298153
4	22831	158	2.0599739597323
4	23036	159	1.8765833152484
4	23245	160	1.9776849407054
4	23459	161	2.1389434248576
4	23668	162	1.90361967971
4	23880	163	2.2643696292587
4	24097	164	1.758956371415
4	24311	165	2.2165240828494
4	24526	166	2.1713934336231
4	24746	167	1.6949763447235
4	24966	168	2.2263921380345
4	25187	169	2.0144485842294
4	25411	170	1.9365417253911
4	25637	171	2.1966743274593
4	25864	172	2.0829635180368
4	26099	173	1.8837004459779
4	26331	174	2.0370102380603
4	26783	175	2.0129871808158
4	27024	176	2.110419931536
4	30230	177	2.0425838547677
4	30468	178	1.9822362093805
4	36063	179	1.9743186858806
4	36300	180	2.1175712673834
4	37563	181	2.1201968286833
4	37807	182	1.7756707209124
4	38285	183	2.0979048255299
4	38527	184	2.2992021735733
4	38772	185	1.9991334071776
4	39013	186	1.9308720231439
4	39251	187	2.061373566653
4	39495	188	2.0062896391449
4	39737	189	1.9691528347794
4	39979	190	1.9843569534359
4	40228	191	2.0389054582681
4	40469	192	1.909553286312
4	40713	193	2.4166957813598
4	40961	194	1.8832667947728
4	41208	195	1.9381296909057
4	41451	196	1.8770198494576
4	41697	197	2.2596233831924
4	41943	198	2.1397622924864
4	42191	199	1.9514174169799
4	42448	200	2.0066425778797
4	42698	201	1.9398135426722
4	42948	202	1.9091936403008
4	43196	203	2.0029210551811
4	43441	204	2.35374588293
4	43687	205	1.9845950427018
4	43934	206	1.7652230437468
4	44185	207	2.2476746921879
4	44436	208	1.8024313763572
4	44685	209	2.109144888897
4	44931	210	2.3057582149799
4	45171	211	2.041236054439
4	45415	212	1.938921752754
4	45662	213	1.8699853415858
4	45901	214	1.9389835799242
4	46146	215	2.4588168705714
4	46637	216	1.9793313817461
4	46874	217	1.7245123863667
4	49906	218	2.0683684304248
4	50137	219	1.9279146762975
4	50869	220	2.2855001251529
4	51104	221	1.9674241382943
4	51337	222	2.1210549022804
4	51573	223	1.7980419611911
4	51820	224	2.029867049228
4	52061	225	2.0284259817468
4	52305	226	2.2220076277628
4	52551	227	2.09508579187
4	52801	228	2.0924381181162
4	53050	229	1.9787359570493
4	53308	230	2.0986928131602
4	53562	231	1.6645541558103
4	53826	232	2.1889630390192
4	54090	233	2.1023441831466
4	54353	234	1.8791947224588
4	54625	235	2.3337931573071
4	54896	236	2.0694844746683
4	55163	237	1.7813794728308
5	56	4	2414.8767583254
5	76	5	2411.8725636174
5	97	6	2407.2970525089
5	117	7	2402.4626210862
5	142	8	2396.3056860371
5	168	9	2388.8743536096
5	194	10	2380.097228827
5	225	11	2370.3507264333
5	256	12	2360.5878487076
5	288	13	2350.7849318213
5	322	14	2341.2418729237
5	356	15	2334.6305580324
5	389	16	2337.3467480277
5	425	17	2348.0519014368
5	460	18	2358.3998493504
5	497	19	2371.2788021446
5	535	20	2385.0887639745
5	573	21	2398.4985461925
5	611	22	2411.2485283293
5	650	23	2420.6905829484
5	689	24	2427.6440450998
5	729	25	2431.3031180431
5	775	26	2432.9057471878
5	818	27	2434.8184996871
5	859	28	2436.9106889558
5	903	29	2438.5031214217
5	948	30	2439.359314087
5	993	31	2440.3695716034
5	1043	32	2441.3815056744
5	1089	33	2442.392207776
5	1135	34	2443.4019859718
5	1186	35	2444.4122552489
5	1238	36	2445.4251439738
5	1287	37	2446.4367595227
5	1340	38	2447.4467230743
5	1390	39	2448.4574488286
5	1441	40	2449.467800329
5	1493	41	2450.4780716181
5	1546	42	2449.7461704329
5	1599	43	2448.6331060936
5	1653	44	2447.5209445587
5	1708	45	2446.407523851
5	1761	46	2445.2946584851
5	1820	47	2444.1824360332
5	1876	48	2443.0706190476
5	1932	49	2441.9568028547
5	1995	50	2440.8451110823
5	2053	51	2439.8503503047
5	2115	52	2438.9091742415
5	2179	53	2438.2310626655
5	2243	54	2433.9050446447
5	2311	55	2424.21615465
5	2380	56	2411.3460908785
5	2450	57	2397.4706148925
5	2524	58	2383.5587488873
5	2601	59	2369.633660475
5	2677	60	2355.7048479554
5	2758	61	2341.7904321874
5	2840	62	2327.8638711022
5	2920	63	2313.9188814831
5	3002	64	2299.9979078089
5	3093	65	2286.0826278217
5	3185	66	2272.1551827891
5	3281	67	2258.2333055256
5	3378	68	2244.3319301521
5	3476	69	2230.5388995206
5	3574	70	2216.7493601282
5	3678	71	2203.5089906314
5	3778	72	2190.3028214657
5	3878	73	2177.2175397498
5	3980	74	2166.0508945999
5	4082	75	2157.6231104804
5	4185	76	2151.7712981963
5	4292	77	2148.1230201763
5	4396	78	2146.1290875688
5	4505	79	2145.2101491778
5	4618	80	2144.8407904832
5	4732	81	2144.7060883162
5	4850	82	2144.6576023959
5	4978	83	2144.6402772203
5	5105	84	2144.6340603527
5	5353	85	2144.6318573126
5	5487	86	2144.6310625414
5	7462	87	2144.6307734308
5	7593	88	2144.630670205
5	10789	89	2144.6306331899
5	10921	90	2144.6306208968
5	11812	91	2144.6306208968
5	11950	92	2144.6306208968
5	12215	93	2144.6306208968
5	12348	94	2144.6306208968
5	12484	95	2144.6306208968
5	12619	96	2144.6306208968
5	12754	97	2144.6306208968
5	12890	98	2144.6306208968
5	13031	99	2144.6306208968
5	13172	100	2144.6306208968
5	13315	101	2144.6306208968
5	13458	102	2144.6306208968
5	13597	103	2144.6306208968
5	13743	104	2144.6306208968
5	13888	105	2144.6306208968
5	14034	106	2144.6306208968
5	14183	107	2144.6306208968
5	14334	108	2144.6306208968
5	14485	109	2144.6306208968
5	14643	110	2144.6306208968
5	14799	111	2144.6306208968
5	14952	112	2144.6306208968
5	15106	113	2144.6306208968
5	15260	114	2144.6306208968
5	15414	115	2144.6306208968
5	15567	116	2144.6306208968
5	15723	117	2144.6306208968
5	15876	118	2144.6306208968
5	16030	119	2144.6306208968
5	16188	120	2144.6306208968
5	16344	121	2144.6306208968
5	16501	122	2144.6306208968
5	16656	123	2144.6306208968
5	16810	124	2144.271240926
5	16973	125	2142.4806794574
5	17132	126	2139.1421320778
5	17293	127	2134.9060802547
5	17458	128	2127.1476351008
5	17619	129	2120.4367071232
5	17783	130	2112.3720247579
5	17950	131	2103.1458484584
5	18117	132	2093.6277764036
5	18281	133	2084.0932923211
5	18451	134	2074.5776737646
5	18616	135	2065.0621022239
5	18782	136	2055.5494191108
5	18949	137	2046.0324037642
5	19117	138	2036.0468948298
5	19281	139	2026.0433869272
5	19451	140	2016.0544539228
5	19617	141	2006.0710674602
5	19787	142	1996.0828277187
5	19966	143	1986.0864328698
5	20138	144	1976.1042330253
5	20314	145	1966.0933695459
5	20495	146	1956.0860346018
5	20673	147	1946.1004532676
5	20854	148	1936.1034052128
5	21032	149	1926.3508274694
5	21219	150	1916.6163277385
5	21403	151	1906.886732759
5	21600	152	1897.1642934916
5	21790	153	1887.4360718232
5	21992	154	1877.7050088475
5	22198	155	1867.9712930534
5	22406	156	1858.2453157756
5	22619	157	1848.5149088484
5	22831	158	1838.7866450298
5	23036	159	1828.8663656547
5	23245	160	1818.7655445216
5	23459	161	1808.6536879344
5	23668	162	1798.6862498338
5	23880	163	1788.7263413786
5	24097	164	1778.7697745202
5	24311	165	1768.812996999
5	24526	166	1758.8610882476
5	24746	167	1748.9204618596
5	24966	168	1738.9898750285
5	25187	169	1729.0373829948
5	25411	170	1719.0896433379
5	25637	171	1709.1390468152
5	25864	172	1699.193342565
5	26099	173	1689.2361993233
5	26331	174	1679.2863782648
5	26783	175	1669.3432114742
5	27024	176	1659.3938795371
5	30230	177	1649.4251209022
5	30468	178	1639.4882410626
5	36063	179	1629.5239065279
5	36300	180	1619.5623401684
5	37563	181	1609.7584680327
5	37807	182	1599.965181965
5	38285	183	1590.1650684273
5	38527	184	1580.3638591984
5	38772	185	1570.5564541591
5	39013	186	1560.7601910948
5	39251	187	1550.435614087
5	39495	188	1539.9313759747
5	39737	189	1529.4025775295
5	39979	190	1518.8810130605
5	40228	191	1508.3670497201
5	40469	192	1497.4606263707
5	40713	193	1486.0718020729
5	40961	194	1474.6903809558
5	41208	195	1463.3313830317
5	41451	196	1451.9551262773
5	41697	197	1439.894334978
5	41943	198	1427.3210899583
5	42191	199	1414.7517842923
5	42448	200	1402.1782748748
5	42698	201	1389.0093479343
5	42948	202	1375.7738716006
5	43196	203	1362.5221306115
5	43441	204	1348.9818907873
5	43687	205	1335.2379639982
5	43934	206	1321.6050218204
5	44185	207	1307.8665913813
5	44436	208	1294.1472503593
5	44685	209	1280.4186832311
5	44931	210	1266.6730089912
5	45171	211	1252.8541384384
5	45415	212	1238.9948983494
5	45662	213	1225.1337697068
5	45901	214	1211.2791101773
5	46146	215	1197.4277301939
5	46637	216	1183.5787668441
5	46874	217	1169.7072934962
5	49906	218	1155.8272978021
5	50137	219	1141.9593104252
5	50869	220	1128.0909017011
5	51104	221	1114.2473179383
5	51337	222	1100.3465596761
5	51573	223	1086.4690552645
5	51820	224	1072.5704875105
5	52061	225	1058.6661740621
5	52305	226	1044.7737176388
5	52551	227	1030.8775700442
5	52801	228	1017.0116907159
5	53050	229	1003.1307971559
5	53308	230	989.25524299836
5	53562	231	975.34874087479
5	53826	232	961.46713092632
5	54090	233	947.57750041143
5	54353	234	933.67857373843
5	54625	235	919.77013211546
5	54896	236	905.87414077425
5	55163	237	891.96266070567
6	56	4	1578.4506684253
6	76	5	1579.5537930429
6	97	6	1581.4165868293
6	117	7	1586.3131998433
6	142	8	1592.5493268352
6	168	9	1600.0762428036
6	194	10	1608.9662610246
6	225	11	1618.8381252186
6	256	12	1628.7265753681
6	288	13	1638.6555796713
6	322	14	1648.8046840783
6	356	15	1660.6325348346
6	389	16	1673.301875555
6	425	17	1682.2138796467
6	460	18	1691.5459182626
6	497	19	1695.5099147679
6	535	20	1697.3308411958
6	573	21	1698.6335971011
6	611	22	1699.8391930545
6	650	23	1700.7320023719
6	689	24	1701.2941834759
6	729	25	1708.3978488175
6	775	26	1718.9439634858
6	818	27	1731.5308475178
6	859	28	1745.2985167308
6	903	29	1759.1189484736
6	948	30	1773.033284259
6	993	31	1786.9263172904
6	1043	32	1800.8424062571
6	1089	33	1814.7415532097
6	1135	34	1828.6279946407
6	1186	35	1842.5211894047
6	1238	36	1856.4504067414
6	1287	37	1870.362115399
6	1340	38	1884.2511058366
6	1390	39	1898.150578063
6	1441	40	1912.0449035605
6	1493	41	1925.9381259941
6	1546	42	1939.8457802581
6	1599	43	1953.7382693188
6	1653	44	1967.6194902081
6	1708	45	1981.5164272105
6	1761	46	1995.4064328251
6	1820	47	2009.2884140396
6	1876	48	2023.165334505
6	1932	49	2037.0672076773
6	1995	50	2050.942565321
6	2053	51	2064.8483957723
6	2115	52	2078.754013543
6	2179	53	2092.6537938379
6	2243	54	2105.6893007364
6	2311	55	2115.3934075218
6	2380	56	2120.5034639826
6	2450	57	2120.5707901428
6	2524	58	2120.100904949
6	2601	59	2119.6305731572
6	2677	60	2119.160115581
6	2758	61	2118.6901442679
6	2840	62	2118.2197627351
6	2920	63	2117.748758764
6	3002	64	2117.2785659507
6	3093	65	2116.8085654471
6	3185	66	2116.3381540589
6	3281	67	2115.8679307271
6	3378	68	2115.0734324455
6	3476	69	2113.117474094
6	3574	70	2111.1620108271
6	3678	71	2106.8134566117
6	3778	72	2102.3345389208
6	3878	73	2097.6439806372
6	3980	74	2091.0703529529
6	4082	75	2086.1090495121
6	4185	76	2082.6641800171
6	4292	77	2080.516496351
6	4396	78	2079.3426997084
6	4505	79	2078.8017351869
6	4618	80	2078.584299556
6	4732	81	2078.5050025163
6	4850	82	2078.4764596215
6	4978	83	2078.4662605636
6	5105	84	2078.4626007918
6	5353	85	2078.4613038972
6	5487	86	2078.4608360277
6	7462	87	2078.4606658332
6	7593	88	2078.4606050653
6	10789	89	2078.4605832752
6	10921	90	2078.4605760388
6	11812	91	2078.4605760388
6	11950	92	2078.4605760388
6	12215	93	2078.4605760388
6	12348	94	2078.4605760388
6	12484	95	2078.4605760388
6	12619	96	2078.4605760388
6	12754	97	2078.4605760388
6	12890	98	2078.4605760388
6	13031	99	2078.4605760388
6	13172	100	2078.4605760388
6	13315	101	2078.4605760388
6	13458	102	2078.4605760388
6	13597	103	2078.4605760388
6	13743	104	2078.4605760388
6	13888	105	2078.4605760388
6	14034	106	2078.4605760388
6	14183	107	2078.4605760388
6	14334	108	2078.4605760388
6	14485	109	2078.4605760388
6	14643	110	2078.4605760388
6	14799	111	2078.4605760388
6	14952	112	2078.4605760388
6	15106	113	2078.4605760388
6	15260	114	2078.4605760388
6	15414	115	2078.4605760388
6	15567	116	2078.4605760388
6	15723	117	2078.4605760388
6	15876	118	2078.4605760388
6	16030	119	2078.4605760388
6	16188	120	2078.4605760388
6	16344	121	2078.4605760388
6	16501	122	2078.4605760388
6	16656	123	2078.4605760388
6	16810	124	2078.249014724
6	16973	125	2077.1949394597
6	17132	126	2075.0013293456
6	17293	127	2070.9076127177
6	17458	128	2067.4490347402
6	17619	129	2060.285861616
6	17783	130	2051.6777054612
6	17950	131	2041.8297830392
6	18117	132	2031.6702941926
6	18281	133	2021.493287323
6	18451	134	2011.3364173146
6	18616	135	2001.1795974905
6	18782	136	1991.0258607436
6	18949	137	1980.8674998162
6	19117	138	1971.1253783628
6	19281	139	1961.401257514
6	19451	140	1951.691304503
6	19617	141	1941.9867431251
6	19787	142	1932.2774640145
6	19966	143	1922.5602575596
6	20138	144	1912.8568496592
6	20314	145	1903.125578667
6	20495	146	1893.3977376623
6	20673	147	1883.6910427129
6	20854	148	1873.9732012954
6	21032	149	1864.0175983226
6	21219	150	1854.0424315697
6	21403	151	1844.0722908285
6	21600	152	1834.1094827102
6	21790	153	1824.1407492319
6	21992	154	1814.1691042008
6	22198	155	1804.1947407657
6	22406	156	1794.2283071671
6	22619	157	1784.2573344037
6	22831	158	1774.2885577334
6	23036	159	1764.5284130014
6	23245	160	1754.9370631101
6	23459	161	1745.3352343775
6	23668	162	1735.6203876995
6	23880	163	1725.8595111202
6	24097	164	1716.1019093618
6	24311	165	1706.3441011505
6	24526	166	1696.5910644149
6	24746	167	1686.8490845831
6	24966	168	1677.1169436853
6	25187	169	1667.3633353235
6	25411	170	1657.6143843699
6	25637	171	1647.8626336399
6	25864	172	1638.1156774191
6	26099	173	1628.3575107958
6	26331	174	1618.6065200334
6	26783	175	1608.862050565
6	27024	176	1599.1115391506
6	30230	177	1589.3419892481
6	30468	178	1579.6036810968
6	36063	179	1569.8384668855
6	36300	180	1560.075965533
6	37563	181	1550.3167594709
6	37807	182	1540.4309222223
6	38285	183	1530.5381929809
6	38527	184	1520.6443576934
6	38772	185	1510.744268042
6	39013	186	1500.8554256624
6	39251	187	1491.5396928461
6	39495	188	1482.4545378098
6	39737	189	1473.3481404502
6	39979	190	1464.2479997836
6	40228	191	1455.1544333613
6	40469	192	1446.531081331
6	40713	193	1438.5106378896
6	40961	194	1430.4954080489
6	41208	195	1422.4959694752
6	41451	196	1414.4843765758
6	41697	197	1407.6295426786
6	41943	198	1401.7017644159
6	42191	199	1395.7758434005
6	42448	200	1389.8479404859
6	42698	201	1385.421231376
6	42948	202	1381.1630128995
6	43196	203	1376.8995616334
6	43441	204	1374.0889444193
6	43687	205	1371.886134035
6	43934	206	1369.4934147811
6	44185	207	1367.1729430165
6	44436	208	1364.7320005298
6	44685	209	1362.415960188
6	44931	210	1360.3244706905
6	45171	211	1358.5697006742
6	45415	212	1357.108972881
6	45662	213	1355.648046039
6	45901	214	1354.1878010249
6	46146	215	1352.7279016664
6	46637	216	1351.2682570145
6	46874	217	1349.8062398676
6	49906	218	1348.343324488
6	50137	219	1346.8816747535
6	50869	220	1345.4199806098
6	51104	221	1344.0680873645
6	51337	222	1343.1110321209
6	51573	223	1342.1455511926
6	51820	224	1341.0182681112
6	52061	225	1339.8248393517
6	52305	226	1338.6324282987
6	52551	227	1337.4397004275
6	52801	228	1336.249570528
6	53050	229	1335.0581519334
6	53308	230	1333.8671916286
6	53562	231	1332.6735750111
6	53826	232	1331.4820949286
6	54090	233	1330.2899264274
6	54353	234	1329.096960024
6	54625	235	1327.9031769363
6	54896	236	1326.7343597151
6	55163	237	1325.624354708
7	76	5	4.0332649588119
7	97	6	5.8265110515686
7	117	7	7.7852127750962
7	142	8	9.5658873894228
7	168	9	11.450149483434
7	194	10	13.391487500134
7	225	11	13.949883621705
7	256	12	13.87602620427
7	288	13	13.885232782268
7	322	14	13.987373048679
7	356	15	13.890608048609
7	389	16	13.887004709987
7	425	17	13.926980708602
7	460	18	13.89086526999
7	497	19	13.965056618985
7	535	20	13.946692067499
7	573	21	13.097137451398
7	611	22	11.939132677032
7	650	23	7.4783001788439
7	689	24	7.8592269216425
7	729	25	9.5749213322898
7	775	26	11.610942506126
7	818	27	13.581243869506
7	859	28	13.973211987913
7	903	29	13.918392209036
7	948	30	13.928662607018
7	993	31	13.985277111761
7	1043	32	13.95532245066
7	1089	33	13.938708755139
7	1135	34	13.908545650935
7	1186	35	13.927478809105
7	1238	36	13.897819017794
7	1287	37	13.989504252097
7	1340	38	13.94374062394
7	1390	39	13.903882643976
7	1441	40	13.969130632835
7	1493	41	13.884234787642
7	1546	42	13.881978327318
7	1599	43	13.927070145076
7	1653	44	13.922745489741
7	1708	45	13.95273740395
7	1761	46	13.968270483359
7	1820	47	13.918685564972
7	1876	48	13.921468284922
7	1932	49	13.897015957548
7	1995	50	13.964752228069
7	2053	51	13.91147568828
7	2115	52	13.974545761354
7	2179	53	13.965476403411
7	2243	54	13.989670229855
7	2311	55	13.951804798429
7	2380	56	13.892850009208
7	2450	57	13.958218119799
7	2524	58	13.933717581006
7	2601	59	13.982012811573
7	2677	60	13.954506225567
7	2758	61	13.954468280503
7	2840	62	13.914126337939
7	2920	63	13.998578815588
7	3002	64	13.932968401979
7	3093	65	13.954534002345
7	3185	66	13.957377178506
7	3281	67	13.932528918332
7	3378	68	13.977439161665
7	3476	69	13.873707558191
7	3574	70	13.945779315263
7	3678	71	13.942668949808
7	3778	72	13.91575948562
7	3878	73	13.907857767178
7	3980	74	11.509649644586
7	4082	75	8.354934886828
7	4185	76	5.5437759062738
7	4292	77	3.307407476074
7	4396	78	1.6348540751313
7	4505	79	0.71722348573033
7	4618	80	0.25744643425691
7	4732	81	0.096330583691781
7	4850	82	0.033582834564042
7	4978	83	0.012074018451278
7	5105	84	0.0044146382852531
7	5353	85	0.0015233755870791
7	5487	86	0.00054909975708676
7	7462	87	0.00020074254418819
7	7593	88	7.1398246478238e-05
7	10789	89	2.5249602854094e-05
7	10921	90	0
7	11812	91	0
7	11950	92	0
7	12215	93	0
7	12348	94	0
7	12484	95	0
7	12619	96	0
7	12754	97	0
7	12890	98	0
7	13031	99	0
7	13172	100	0
7	13315	101	0
7	13458	102	0
7	13597	103	0
7	13743	104	0
7	13888	105	0
7	14034	106	0
7	14183	107	0
7	14334	108	0
7	14485	109	0
7	14643	110	0
7	14799	111	0
7	14952	112	0
7	15106	113	0
7	15260	114	0
7	15414	115	0
7	15567	116	0
7	15723	117	0
7	15876	118	0
7	16030	119	0
7	16188	120	0
7	16344	121	0
7	16501	122	0
7	16656	123	0
7	16810	124	1.0342890448911
7	16973	125	2.9877881705766
7	17132	126	4.8093144381847
7	17293	127	6.8172159011895
7	17458	128	8.7690167979874
7	17619	129	10.599383906506
7	17783	130	12.630911214417
7	17950	131	13.911355651631
7	18117	132	13.959096302334
7	18281	133	13.985669557508
7	18451	134	13.912786148109
7	18616	135	13.880683887878
7	18782	136	13.921652116431
7	18949	137	13.904044170342
7	19117	138	13.928399279253
7	19281	139	13.947232982973
7	19451	140	13.957098587838
7	19617	141	13.872669367229
7	19787	142	13.988834063003
7	19966	143	13.962365872057
7	20138	144	13.978590016267
7	20314	145	13.996544766314
7	20495	146	13.909791962707
7	20673	147	13.955426083545
7	20854	148	13.916719595476
7	21032	149	13.96472714375
7	21219	150	13.96898798909
7	21403	151	13.902139999291
7	21600	152	13.980534003156
7	21790	153	13.976162572829
7	21992	154	13.902045026864
7	22198	155	13.998268041729
7	22406	156	13.981719435903
7	22619	157	13.904254397955
7	22831	158	13.91068194794
7	23036	159	13.901592570813
7	23245	160	13.871256113877
7	23459	161	13.9870051032
7	23668	162	13.963580676371
7	23880	163	13.94083829636
7	24097	164	13.980116114989
7	24311	165	13.977826093403
7	24526	166	13.954251742228
7	24746	167	13.894492452065
7	24966	168	13.893317757975
7	25187	169	13.907786323659
7	25411	170	13.910502062014
7	25637	171	13.881678228341
7	25864	172	13.899310339873
7	26099	173	13.872349197764
7	26331	174	13.895146320874
7	26783	175	13.975084472168
7	27024	176	13.915615806044
7	30230	177	13.983601140513
7	30468	178	13.901822753502
7	36063	179	13.971918848483
7	36300	180	13.912339184245
7	37563	181	13.950011306256
7	37807	182	13.909387760814
7	38285	183	13.921692179195
7	38527	184	13.95886876655
7	38772	185	13.959034660405
7	39013	186	13.91489113231
7	39251	187	13.96091755718
7	39495	188	13.875510563259
7	39737	189	13.873567529691
7	39979	190	13.9133958187
7	40228	191	13.889178582483
7	40469	192	13.932158297678
7	40713	193	13.935059991931
7	40961	194	13.963504586534
7	41208	195	13.881370106079
7	41451	196	13.933884861649
7	41697	197	13.943965068546
7	41943	198	13.884444371182
7	42191	199	13.946287486863
7	42448	200	13.893841881861
7	42698	201	13.912293885665
7	42948	202	13.983397457867
7	43196	203	13.921230566443
7	43441	204	13.871412974917
7	43687	205	13.902704356774
7	43934	206	13.994545033972
7	44185	207	13.90383364571
7	44436	208	13.963052310185
7	44685	209	13.985246499267
7	44931	210	13.896051402476
7	45171	211	13.907111838569
7	45415	212	13.899993397309
7	45662	213	13.940402338933
7	45901	214	13.941538823023
7	46146	215	13.882784008861
7	46637	216	13.995288628133
7	46874	217	13.927463414203
7	49906	218	13.971818280474
7	50137	219	13.928322480328
7	50869	220	13.891148924159
7	51104	221	13.871901298014
7	51337	222	13.969404828835
7	51573	223	13.87693645186
7	51820	224	13.996604662205
7	52061	225	13.992994271445
7	52305	226	13.991041405685
7	52551	227	13.926891861295
7	52801	228	13.897829952496
7	53050	229	13.941519493496
7	53308	230	13.958954771997
7	53562	231	13.999347892485
7	53826	232	13.893499102455
7	54090	233	13.927862944989
7	54353	234	13.94473654079
7	54625	235	13.995681044671
7	54896	236	13.939681922875
7	55163	237	13.937960609884
8	97	6	1.7932460927567
8	117	7	1.9587017235276
8	142	8	1.7806746143266
8	168	9	1.8842620940111
8	194	10	1.9413380167005
8	225	11	0.5583961215709
8	256	12	-0.073857417434921
8	288	13	0.0092065779981212
8	322	14	0.10214026641101
8	356	15	-0.096765000070445
8	389	16	-0.0036033386224883
8	425	17	0.039975998615846
8	460	18	-0.036115438612178
8	497	19	0.074191348995083
8	535	20	-0.018364551486448
8	573	21	-0.84955461610103
8	611	22	-1.1580047743662
8	650	23	-4.4608324981877
8	689	24	0.38092674279862
8	729	25	1.7156944106473
8	775	26	2.0360211738362
8	818	27	1.9703013633797
8	859	28	0.39196811840698
8	903	29	-0.054819778876846
8	948	30	0.010270397982096
8	993	31	0.056614504742901
8	1043	32	-0.029954661100637
8	1089	33	-0.016613695521373
8	1135	34	-0.030163104203529
8	1186	35	0.018933158169965
8	1238	36	-0.029659791311714
8	1287	37	0.091685234303586
8	1340	38	-0.045763628156855
8	1390	39	-0.039857979963999
8	1441	40	0.065247988859191
8	1493	41	-0.08489584519295
8	1546	42	-0.0022564603248618
8	1599	43	0.045091817758511
8	1653	44	-0.0043246553349299
8	1708	45	0.029991914208512
8	1761	46	0.015533079409506
8	1820	47	-0.0495849183877
8	1876	48	0.0027827199501917
8	1932	49	-0.024452327373437
8	1995	50	0.067736270520836
8	2053	51	-0.053276539789513
8	2115	52	0.063070073074195
8	2179	53	-0.0090693579427903
8	2243	54	0.024193826443517
8	2311	55	-0.037865431425162
8	2380	56	-0.058954789221753
8	2450	57	0.065368110591081
8	2524	58	-0.024500538792926
8	2601	59	0.048295230567454
8	2677	60	-0.027506586005911
8	2758	61	-3.7945064249811e-05
8	2840	62	-0.040341942564119
8	2920	63	0.08445247764932
8	3002	64	-0.065610413609539
8	3093	65	0.021565600365866
8	3185	66	0.0028431761614058
8	3281	67	-0.024848260174041
8	3378	68	0.044910243332852
8	3476	69	-0.10373160347343
8	3574	70	0.072071757072118
8	3678	71	-0.0031103654555054
8	3778	72	-0.02690946418792
8	3878	73	-0.0079017184418628
8	3980	74	-2.3982081225927
8	4082	75	-3.1547147577576
8	4185	76	-2.8111589805542
8	4292	77	-2.2363684301998
8	4396	78	-1.6725534009427
8	4505	79	-0.91763058940095
8	4618	80	-0.45977705147342
8	4732	81	-0.16111585056513
8	4850	82	-0.062747749127738
8	4978	83	-0.021508816112765
8	5105	84	-0.0076593801660245
8	5353	85	-0.002891262698174
8	5487	86	-0.00097427582999232
8	7462	87	-0.00034835721289857
8	7593	88	-0.00012934429770995
8	10789	89	-4.6148643624144e-05
8	10921	90	-2.5249602854094e-05
8	11812	91	0
8	11950	92	0
8	12215	93	0
8	12348	94	0
8	12484	95	0
8	12619	96	0
8	12754	97	0
8	12890	98	0
8	13031	99	0
8	13172	100	0
8	13315	101	0
8	13458	102	0
8	13597	103	0
8	13743	104	0
8	13888	105	0
8	14034	106	0
8	14183	107	0
8	14334	108	0
8	14485	109	0
8	14643	110	0
8	14799	111	0
8	14952	112	0
8	15106	113	0
8	15260	114	0
8	15414	115	0
8	15567	116	0
8	15723	117	0
8	15876	118	0
8	16030	119	0
8	16188	120	0
8	16344	121	0
8	16501	122	0
8	16656	123	0
8	16810	124	1.0342890448911
8	16973	125	1.9534991256854
8	17132	126	1.8215262676082
8	17293	127	2.0079014630048
8	17458	128	1.9518008967979
8	17619	129	1.8303671085183
8	17783	130	2.0315273079113
8	17950	131	1.280444437214
8	18117	132	0.047740650703199
8	18281	133	0.026573255173863
8	18451	134	-0.072883409399074
[...]
348	54353	234	-0.026600308637134
348	54625	235	0.0044735225103789
348	54896	236	-0.02434546659002
348	55163	237	0.020548379637766
349	44931	210	4.1729553418125
349	45171	211	5.5045762126441
349	45415	212	6.6775357224082
349	45662	213	7.6956572928261
349	45901	214	8.1770244694919
349	46146	215	2.3192751241499
349	46637	216	2.0954938403503
349	46874	217	1.643584736878
349	49906	218	2.2529438603076
349	50137	219	1.9337185344921
349	50869	220	2.0901941637552
349	51104	221	1.940760745402
349	51337	222	2.1588336514759
349	51573	223	2.043599252401
349	51820	224	1.9096032786055
349	52061	225	1.8815803588309
349	52305	226	2.4218065081561
349	52551	227	1.9787488433396
349	52801	228	1.7926043984681
349	53050	229	2.0962248723977
349	53308	230	2.0261344908701
349	53562	231	1.9880113486103
349	53826	232	2.310533159412
349	54090	233	1.8929490553674
349	54353	234	1.9412031956714
349	54625	235	2.0458901751862
349	54896	236	1.9468590032785
349	55163	237	2.0994190221486
350	45171	211	2414.8545540423
350	45415	212	2411.903388532
350	45662	213	2407.2062438949
350	45901	214	2402.3010143468
350	46146	215	2396.1528209515
350	46637	216	2388.5691339533
350	46874	217	2379.5036130993
350	49906	218	2369.7150826269
350	50137	219	2359.9346211506
350	50869	220	2350.1533853115
350	51104	221	2340.6915091316
350	51337	222	2334.4830700433
350	51573	223	2324.5032586518
350	51820	224	2311.1726196023
350	52061	225	2300.7546767998
350	52305	226	2290.6896010028
350	52551	227	2280.6293897628
350	52801	228	2270.5807346418
350	53050	229	2260.5051070462
350	53308	230	2250.4439734463
350	53562	231	2240.3663109841
350	53826	232	2230.2931409071
350	54090	233	2220.2264025833
350	54353	234	2210.1546382871
350	54625	235	2200.1036392208
350	54896	236	2190.0168276798
350	55163	237	2179.9575898018
351	45171	211	1578.4588217223
351	45415	212	1579.5424742959
351	45662	213	1581.5085634449
351	45901	214	1586.4768852061
351	46146	215	1592.7041581068
351	46637	216	1600.3853882672
351	46874	217	1609.5675119767
351	49906	218	1619.4819448246
351	50137	219	1629.3882048912
351	50869	220	1639.2952492805
351	51104	221	1649.5092353923
351	51337	222	1661.5207647402
351	51573	223	1666.4680772172
351	51820	224	1669.8998980485
351	52061	225	1678.9673624309
351	52305	226	1688.5973726073
351	52551	227	1698.2227284983
351	52801	228	1707.8359225346
351	53050	229	1717.4723882806
351	53308	230	1727.0928316014
351	53562	231	1736.7301263707
351	53826	232	1746.3692951519
351	54090	233	1756.0023092907
351	54353	234	1765.6386282062
351	54625	235	1775.2549732719
351	54896	236	1784.9055821076
351	55163	237	1794.5256932043
352	45415	212	4.0872488125408
352	45662	213	5.9639071588538
352	45901	214	7.8492647402728
352	46146	215	9.5215203508962
352	46637	216	11.832086444341
352	46874	217	13.838786413248
352	49906	218	13.929732040896
352	50137	219	13.948952268432
352	50869	220	13.921175555685
352	51104	221	13.948430594346
352	51337	222	13.951016751255
352	51573	223	13.901009133332
352	51820	224	13.919627328555
352	52061	225	13.971441865044
352	52305	226	13.927666859063
352	52551	227	13.880157303144
352	52801	228	13.889542678692
352	53050	229	13.897729730057
352	53308	230	13.893168991895
352	53562	231	13.938085441224
352	53826	232	13.871038431895
352	54090	233	13.96858266928
352	54353	234	13.898397457909
352	54625	235	13.875476460594
352	54896	236	13.98169286364
352	55163	237	13.922360418849
353	45662	213	1.8766583463131
353	45901	214	1.8853575814189
353	46146	215	1.6722556106234
353	46637	216	2.3105660934444
353	46874	217	2.006699968907
353	49906	218	0.090945627648033
353	50137	219	0.019220227536279
353	50869	220	-0.02777671274729
353	51104	221	0.02725503866095
353	51337	222	0.0025861569098193
353	51573	223	-0.050007617922965
353	51820	224	0.018618195222226
353	52061	225	0.051814536489546
353	52305	226	-0.04377500598086
353	52551	227	-0.047509555919097
353	52801	228	0.0093853755481543
353	53050	229	0.0081870513642208
353	53308	230	-0.0045607381616719
353	53562	231	0.044916449328886
353	53826	232	-0.06704700932838
353	54090	233	0.097544237384572
353	54353	234	-0.070185211370699
353	54625	235	-0.022920997315087
353	54896	236	0.10621640304569
353	55163	237	-0.059332444791217
354	45662	213	4.1146188771278
354	45901	214	5.0998026828017
354	46146	215	5.4863631768765
354	46637	216	8.422457922319
354	46874	217	8.7150546648005
354	49906	218	2.3369705976591
354	50137	219	2.0982349426333
354	50869	220	1.9375966063779
354	51104	221	2.1251888255429
354	51337	222	2.0425284467906
354	51573	223	1.8612005132719
354	51820	224	2.0930868985492
354	52061	225	2.2103875533994
354	52305	226	1.8845157412812
354	52551	227	1.8676872247236
354	52801	228	2.0589829084581
354	53050	229	2.0558207384018
354	53308	230	2.0126648484482
354	53562	231	2.1833904997396
354	53826	232	1.8015530284812
354	54090	233	2.3640050436237
354	54353	234	1.7933810364042
354	54625	235	1.9494890664038
354	54896	236	2.3948769039103
354	55163	237	1.8318308792965
355	45901	214	2414.864067925
355	46146	215	2411.9429546059
355	46637	216	2407.1699472086
355	46874	217	2402.0641477508
355	49906	218	2395.5207737305
355	50137	219	2387.5195967746
355	50869	220	2378.6839174638
355	51104	221	2369.8493398346
355	51337	222	2360.9978572181
355	51573	223	2352.1641875277
355	51820	224	2343.3326291633
355	52061	225	2335.5608815018
355	52305	226	2331.4130256152
355	52551	227	2319.0482706777
355	52801	228	2307.7434118207
355	53050	229	2298.6403718654
355	53308	230	2289.5317579153
355	53562	231	2280.4431587078
355	53826	232	2271.3386374522
355	54090	233	2262.2249005631
355	54353	234	2253.1322314949
355	54625	235	2244.0253875029
355	54896	236	2234.9169209433
355	55163	237	2225.8360210614
356	45901	214	1578.4553282745
356	46146	215	1579.5279458398
356	46637	216	1581.5453269873
356	46874	217	1586.7167984359
356	49906	218	1593.3443348678
356	50137	219	1601.4484248394
356	50869	220	1610.3977507297
356	51104	221	1619.3459607689
356	51337	222	1628.3112932323
356	51573	223	1637.2585836546
356	51820	224	1646.2037355946
356	52061	225	1656.0772372996
356	52305	226	1667.0566781489
356	52551	227	1667.2788914749
356	52801	228	1672.2807173692
356	53050	229	1680.9902759632
356	53308	230	1689.7051676149
356	53562	231	1698.400909665
356	53826	232	1707.1110540936
356	54090	233	1715.8275546301
356	54353	234	1724.522559219
356	54625	235	1733.2297105314
356	54896	236	1741.9447301105
356	55163	237	1750.6343805362
357	46146	215	4.0430518242415
357	46637	216	6.1656951921271
357	46874	217	8.1446855179012
357	49906	218	10.262789473508
357	50137	219	12.264090834737
357	50869	220	12.582538919563
357	51104	221	12.571231694494
357	51337	222	12.635832727721
357	51573	223	12.567886123135
357	51820	224	12.559130009797
357	52061	225	12.61428976932
357	52305	226	12.53913688733
357	52551	227	12.598128644474
357	52801	228	12.525623181672
357	53050	229	12.563583786958
357	53308	230	12.594966945124
357	53562	231	12.555369408931
357	53826	232	12.606141030958
357	54090	233	12.636444936131
357	54353	234	12.592193602286
357	54625	235	12.574383238027
357	54896	236	12.576476469715
357	55163	237	12.601715689993
358	46637	216	2.1226433678856
358	46874	217	1.9789903257741
358	49906	218	2.1181039556069
358	50137	219	2.0013013612293
358	50869	220	0.31844808482526
358	51104	221	-0.011307225069032
358	51337	222	0.064601033227518
358	51573	223	-0.067946604585741
358	51820	224	-0.0087561133387499
358	52061	225	0.055159759523814
358	52305	226	-0.075152881990654
358	52551	227	0.058991757144687
358	52801	228	-0.072505462802948
358	53050	229	0.037960605286061
358	53308	230	0.031383158166427
358	53562	231	-0.039597536192741
358	53826	232	0.050771622026804
358	54090	233	0.030303905173206
358	54353	234	-0.044251333845315
358	54625	235	-0.017810364258475
358	54896	236	0.0020932316873221
358	55163	237	0.025239220277872
359	46637	216	4.5831910283786
359	46874	217	5.4373097352598
359	49906	218	6.9437066157545
359	50137	219	7.7871614881444
359	50869	220	2.8666663662637
359	51104	221	1.8657087203119
359	51337	222	2.1026515008788
359	51573	223	1.6938571754867
359	51820	224	1.8723499770865
359	52061	225	2.0716233574037
359	52305	226	1.6699086058565
359	52551	227	2.0815516608562
359	52801	228	1.676904947172
359	53050	229	2.0142001744353
359	53308	230	1.997412374293
359	53562	231	1.7786908274107
359	53826	232	2.0574313127512
359	54090	233	1.9982697574041
359	54353	234	1.7676063105688
359	54625	235	1.8462829426866
359	54896	236	1.9067930975915
359	55163	237	1.9794266091582
360	46874	217	2414.8849415224
360	49906	218	2411.9590763111
360	50137	219	2407.2479562768
360	50869	220	2402.293427618
360	51104	221	2395.9458910961
360	51337	222	2388.1867929455
360	51573	223	2378.9615657553
360	51820	224	2369.1547988546
360	52061	225	2359.3585812693
360	52305	226	2349.5650227505
360	52551	227	2340.1803312012
360	52801	228	2334.3458831848
360	53050	229	2323.670302932
360	53308	230	2310.3835639964
360	53562	231	2300.1635470716
360	53826	232	2290.099015261
360	54090	233	2280.0292383274
360	54353	234	2269.9530207486
360	54625	235	2259.9599701241
360	54896	236	2250.167227447
360	55163	237	2240.5547478298
361	46874	217	1578.4476635978
361	49906	218	1579.5220260341
361	50137	219	1581.4663145486
361	50869	220	1586.484569517
361	51104	221	1592.913749543
361	51337	222	1600.7726470344
361	51573	223	1610.1165312612
361	51820	224	1620.0494350987
361	52061	225	1629.9716539327
361	52305	226	1639.8911794983
361	52551	227	1650.1636227043
361	52801	228	1662.3469572384
361	53050	229	1666.3819784289
361	53308	230	1670.1624947414
361	53562	231	1679.5329404166
361	53826	232	1689.1624301206
361	54090	233	1698.7969382256
361	54353	234	1708.4362765448
361	54625	235	1717.9937645644
361	54896	236	1727.357431422
361	55163	237	1736.5498083029
362	49906	218	3.9586981430736
362	50137	219	6.0730021942935
362	50869	220	7.8818325461696
362	51104	221	9.9541057884476
362	51337	222	11.964345567656
362	51573	223	13.918246093614
362	51820	224	13.999614965883
362	52061	225	13.983065038587
362	52305	226	13.97494619458
362	52551	227	13.892154358746
362	52801	228	13.908756525314
362	53050	229	13.97553256742
362	53308	230	13.874411032775
362	53562	231	13.955871244951
362	53826	232	13.950936340482
362	54090	233	13.955739404485
362	54353	234	13.935682734416
362	54625	235	13.626059605793
362	54896	236	13.438731575975
362	55163	237	13.206780339438
363	50137	219	2.1143040512199
363	50869	220	1.8088303518761
363	51104	221	2.072273242278
363	51337	222	2.0102397792088
363	51573	223	1.9539005259571
363	51820	224	0.081368872269522
363	52061	225	-0.016549927296582
363	52305	226	-0.0081188440066757
363	52551	227	-0.082791835833341
363	52801	228	0.016602166567463
363	53050	229	0.06677604210563
363	53308	230	-0.10112153464463
363	53562	231	0.081460212175735
363	53826	232	-0.0049349044682465
363	54090	233	0.004803064002191
363	54353	234	-0.020056670068298
363	54625	235	-0.30962312862291
363	54896	236	-0.1873280298185
363	55163	237	-0.2319512365372
364	50137	219	4.5181344258882
364	50869	220	4.9713648916897
364	51104	221	6.6525570001816
364	51337	222	7.6417120903234
364	51573	223	8.5844522228181
364	51820	224	2.3133391832229
364	52061	225	1.9813400209415
364	52305	226	2.0089366345423
364	52551	227	1.7506443112392
364	52801	228	2.0851726923967
364	53050	229	2.2612492290589
364	53308	230	1.6879049902026
364	53562	231	2.3083098270575
364	53826	232	2.0172330508903
364	54090	233	2.0504702313224
364	54353	234	1.9649070546568
364	54625	235	0.973
364	54896	236	1.3757848489173
364	55163	237	1.221628834314
365	50869	220	2414.8750284917
365	51104	221	2411.9339455424
365	51337	222	2407.3319611535
365	51573	223	2402.3972624436
365	51820	224	2396.0572339902
365	52061	225	2388.4003397855
365	52305	226	2379.6416898964
365	52551	227	2370.8177006592
365	52801	228	2361.9927557689
365	53050	229	2353.1636587251
365	53308	230	2344.3240873044
365	53562	231	2336.4225361851
365	53826	232	2333.8320020144
365	54090	233	2341.3272543678
365	54353	234	2350.8445702391
365	54625	235	2360.1739660508
365	54896	236	2372.2945269699
365	55163	237	2384.7465469472
366	50869	220	1578.4513036115
366	51104	221	1579.5312539209
366	51337	222	1581.3812291808
366	51573	223	1586.3793991441
366	51820	224	1592.8009745302
366	52061	225	1600.5563535048
366	52305	226	1609.4276592033
366	52551	227	1618.3651446607
366	52801	228	1627.3035980621
366	53050	229	1636.2462570239
366	53308	230	1645.1995250862
366	53562	231	1654.9741851958
366	53826	232	1667.056127063
366	54090	233	1676.516373802
366	54353	234	1684.7323783217
366	54625	235	1693.1458611395
366	54896	236	1695.66173355
366	55163	237	1697.2901097322
367	51104	221	3.9926902859769
367	51337	222	5.8707143579465
367	51573	223	7.9666890141246
367	51820	224	9.9017611701083
367	52061	225	11.815806937597
367	52305	226	12.516959403045
367	52551	227	12.598470532992
367	52801	228	12.621927906522
367	53050	229	12.53468476518
367	53308	230	12.558906326026
367	53562	231	12.595487658917
367	53826	232	12.632799820991
367	54090	233	12.629703076763
367	54353	234	12.542674094876
367	54625	235	12.569610691466
367	54896	236	12.612928047047
367	55163	237	12.519272880563
368	51337	222	1.8780240719696
368	51573	223	2.0959746561781
368	51820	224	1.9350721559837
368	52061	225	1.9140457674884
368	52305	226	0.70115246544869
368	52551	227	0.081511129946447
368	52801	228	0.023457373529673
368	53050	229	-0.087243141341023
368	53308	230	0.024221560845618
368	53562	231	0.036581332890782
368	53826	232	0.037312162073794
368	54090	233	-0.0030967442272214
368	54353	234	-0.08702898188727
368	54625	235	0.026936596590094
368	54896	236	0.043317355581094
368	55163	237	-0.09365516648395
369	51337	222	4.069002455373
369	51573	223	5.56523545527
369	51820	224	6.2950539222795
369	52061	225	7.2828416234605
369	52305	226	4.0100685685133
369	52551	227	2.1499620793901
369	52801	228	1.9759953892699
369	53050	229	1.6330575738093
369	53308	230	1.972143289379
369	53562	231	2.0132434494728
369	53826	232	2.0192427062228
369	54090	233	1.8959335950447
369	54353	234	1.6342704596253
369	54625	235	1.9814150515089
369	54896	236	2.0354819823165
369	55163	237	1.6126218818178
370	51573	223	2414.8456061651
370	51820	224	2411.7768218493
370	52061	225	2407.0964475713
370	52305	226	2402.1265595859
370	52551	227	2395.7899373899
370	52801	228	2388.0290749002
370	53050	229	2379.5025601021
370	53308	230	2370.996397709
370	53562	231	2362.4687756479
370	53826	232	2353.9571681315
370	54090	233	2345.4285415716
370	54353	234	2337.6602249033
370	54625	235	2333.9869880998
370	54896	236	2339.096470236
370	55163	237	2348.400638019
371	51573	223	1578.4621073361
371	51820	224	1579.5889489213
371	52061	225	1581.6197719947
371	52305	226	1586.6535838451
371	52551	227	1593.0717091626
371	52801	228	1600.9323936859
371	53050	229	1609.568578518
371	53308	230	1618.1841491675
371	53562	231	1626.8214555038
371	53826	232	1635.4425413134
371	54090	233	1644.0808650693
371	54353	234	1653.3897509994
371	54625	235	1664.6143352529
371	54896	236	1674.714881462
371	55163	237	1682.5283790315
372	51820	224	4.1653207787324
372	52061	225	5.9722067897965
372	52305	226	7.9777267584542
372	52551	227	9.8984073769592
372	52801	228	11.899995872116
372	53050	229	12.163112605327
372	53308	230	12.099850516705
372	53562	231	12.09234175109
372	53826	232	12.120548816087
372	54090	233	12.124326450563
372	54353	234	12.100390731869
372	54625	235	12.185716254911
372	54896	236	12.169369257434
372	55163	237	12.113664886322
373	52061	225	1.8068860110641
373	52305	226	2.0055199686578
373	52551	227	1.920680618505
373	52801	228	2.0015884951572
373	53050	229	0.26311673321102
373	53308	230	-0.063262088622432
373	53562	231	-0.0075087656150572
373	53826	232	0.028207064997405
373	54090	233	0.0037776344758456
373	54353	234	-0.023935718694702
373	54625	235	0.085325523042119
373	54896	236	-0.016346997476647
373	55163	237	-0.055704371111934
374	52061	225	4.0184314392777
374	52305	226	5.3976267362329
374	52551	227	6.2589057425444
374	52801	228	7.5800823939539
374	53050	229	2.6342543312045
374	53308	230	1.6728692470766
374	53562	231	1.8347963929293
374	53826	232	1.941579603816
374	54090	233	1.8705594814386
374	54353	234	1.7875923213938
374	54625	235	2.1155768354857
374	54896	236	1.8155932907393
374	55163	237	1.6959501378493
375	52305	226	2414.8891162548
375	52551	227	2411.9439035335
375	52801	228	2407.2220174863
375	53050	229	2402.1630408553
375	53308	230	2395.6524457674
375	53562	231	2387.768487916
375	53826	232	2378.592581332
375	54090	233	2368.8163431447
375	54353	234	2359.0137854565
375	54625	235	2349.2200873257
375	54896	236	2339.8632030392
375	55163	237	2334.2633678189
376	52305	226	1578.4461306585
376	52551	227	1579.5275973985
376	52801	228	1581.4925869694
376	53050	229	1586.6166333454
376	53308	230	1593.2109692339
376	53562	231	1601.1963324016
376	53826	232	1610.4902616488
376	54090	233	1620.3922441052
376	54353	234	1630.32088459
376	54625	235	1640.2405515639
376	54896	236	1650.5695961099
376	55163	237	1662.8438967923
377	52551	227	4.0692716084104
377	52801	228	6.0991608256367
377	53050	229	8.1903217595476
377	53308	230	10.190762303498
377	53562	231	12.045442252838
377	53826	232	13.806552084127
377	54090	233	13.88822814004
377	54353	234	13.933290730428
377	54625	235	13.962685538286
377	54896	236	13.912614725837
377	55163	237	13.994788780017
378	52801	228	2.0298892172263
378	53050	229	2.0911609339109
378	53308	230	2.0004405439505
378	53562	231	1.8546799493395
378	53826	232	1.7611098312889
378	54090	233	0.081676055913796
378	54353	234	0.045062590388115
378	54625	235	0.029394807857461
378	54896	236	-0.050070812448393
378	55163	237	0.08217405417934
379	52801	228	4.4089127275764
379	53050	229	5.6835304388074
379	53308	230	6.6123988625706
379	53562	231	7.2365693045069
379	53826	232	7.8790323513055
379	54090	233	2.3008077067669
379	54353	234	2.1833399756815
379	54625	235	2.1339398589835
379	54896	236	1.8620306482325
379	55163	237	2.3154653517782
380	53050	229	2414.8956057425
380	53308	230	2412.0514348641
380	53562	231	2407.4951340874
380	53826	232	2402.7678120987
380	54090	233	2396.8289622385
380	54353	234	2389.5850461143
380	54625	235	2380.961435722
380	54896	236	2371.2820592265
380	55163	237	2361.4873873737
381	53050	229	1578.4437477523
381	53308	230	1579.4881124552
381	53562	231	1581.2159574786
381	53826	232	1586.0040833922
381	54090	233	1592.0193201322
381	54353	234	1599.3564092051
381	54625	235	1608.0909384973
381	54896	236	1617.8948134044
381	55163	237	1627.8154666247
382	53308	230	3.8552572839925
382	53562	231	5.7058036832054
382	53826	232	7.5338885764623
382	54090	233	9.1557102907108
382	54353	234	11.290812091616
382	54625	235	13.073682504749
382	54896	236	13.986546517762
382	55163	237	13.870984120176
383	53562	231	1.8505463992129
383	53826	232	1.8280848932569
383	54090	233	1.6218217142485
383	54353	234	2.1351018009055
383	54625	235	1.7828704131325
383	54896	236	0.91286401301308
383	55163	237	-0.11556239758618
384	53562	231	3.9470921271723
384	53826	232	4.8321314849062
384	54090	233	5.2011639580859
384	54353	234	7.5974321191383
384	54625	235	7.5644937373463
384	54896	236	5.114511986758
384	55163	237	1.6393659506298
385	53826	232	2414.8444615066
385	54090	233	2411.9286728755
385	54353	234	2407.3887794658
385	54625	235	2402.5142881152
385	54896	236	2396.212200578
385	55163	237	2388.5077138095
386	53826	232	1578.4625276485
386	54090	233	1579.5331900166
386	54353	234	1581.3236800581
386	54625	235	1586.2608682606
386	54896	236	1592.6440147264
386	55163	237	1600.4475984108
387	54090	233	3.8749772752637
387	54353	234	5.7931443439705
387	54625	235	7.7762736843015
387	54896	236	9.9849472771796
387	55163	237	11.822520557952
388	54353	234	1.9181670687068
388	54625	235	1.9831293403311
388	54896	236	2.208673592878
388	55163	237	1.8375732807722
389	54353	234	4.085466380144
389	54625	235	5.2451141081251
389	54896	236	6.9985271381321
389	55163	237	7.0686347831567
390	54625	235	2414.8976249453
390	54896	236	2412.029502965
390	55163	237	2407.309053787
391	54625	235	1578.4430063115
391	54896	236	1579.4961657338
391	55163	237	1581.4044311875
392	54896	236	3.9886565368047
392	55163	237	5.918398673996
393	55163	237	1.9297421371913
394	55163	237	4.1671112591643

