version 2
run WithChannelSwitching-0-20210913-12:52:18-8954
attr configname WithChannelSwitching
attr datetime 20210913-12:52:18
attr experiment WithChannelSwitching
attr inifile omnetpp.ini
attr iterationvars ""
attr iterationvarsf ""
attr measurement ""
attr network RSUExampleScenario
attr processid 8954
attr repetition 0
attr replication #0
attr resultdir results
attr runnumber 0
attr seedset 0
param *.playgroundSizeX 2500m
param *.playgroundSizeY 2500m
param *.playgroundSizeZ 50m
param *.annotations.draw true
param *.obstacles.obstacles "xmldoc(\"config.xml\", \"//AnalogueModel[@type='SimpleObstacleShadowing']/obstacles\")"
param *.manager.updateInterval 1s
param *.manager.host "\"localhost\""
param *.manager.port 9999
param *.manager.autoShutdown true
param *.manager.launchConfig "xmldoc(\"erlangen.launchd.xml\")"
param *.rsu[0].mobility.x 1200
param *.rsu[0].mobility.y 1200
param *.rsu[0].mobility.z 3
param *.rsu[*].applType "\"RSUApplication\""
param *.rsu[*].appl.headerLength "80 bit"
param *.rsu[*].appl.sendBeacons true
param *.rsu[*].appl.dataOnSch true
param *.rsu[*].appl.beaconInterval 1s
param *.rsu[*].appl.beaconUserPriority 7
param *.rsu[*].appl.dataUserPriority 5
param *.rsu[*].nic.phy80211p.antennaOffsetZ "0 m"
param *.connectionManager.sendDirect true
param *.connectionManager.maxInterfDist 2600m
param *.connectionManager.drawMaxIntfDist false
param *.**.nic.mac1609_4.useServiceChannel true
param *.**.nic.mac1609_4.txPower 20mW
param *.**.nic.mac1609_4.bitrate 6Mbps
param *.**.nic.phy80211p.minPowerLevel -110dBm
param *.**.nic.phy80211p.useNoiseFloor true
param *.**.nic.phy80211p.noiseFloor -98dBm
param *.**.nic.phy80211p.decider "xmldoc(\"config.xml\")"
param *.**.nic.phy80211p.analogueModels "xmldoc(\"config.xml\")"
param *.**.nic.phy80211p.usePropagationDelay true
param *.**.nic.phy80211p.antenna "xmldoc(\"antenna.xml\", \"/root/Antenna[@id='monopole']\")"
param *.node[*].nic.phy80211p.antennaOffsetY "0 m"
param *.node[*].nic.phy80211p.antennaOffsetZ "1.895 m"
param *.node[*].applType "\"TaxiApplication\""
param *.node[*].appl.headerLength "80 bit"
param *.node[*].appl.sendBeacons false
param *.node[*].appl.dataOnSch true
param *.node[*].appl.beaconInterval 0.1s
param *.node[*].veinsmobility.x 0
param *.node[*].veinsmobility.y 0
param *.node[*].veinsmobility.z 0
param *.node[*].veinsmobility.setHostSpeed false
param *.node[*0].veinsmobility.accidentCount 0
param *.node[*0].veinsmobility.accidentStart 73s
param *.node[*0].veinsmobility.accidentDuration 50s

vector 0 RSUExampleScenario.node[0].veinsmobility posx ETV
vector 1 RSUExampleScenario.node[0].veinsmobility posy ETV
vector 2 RSUExampleScenario.node[0].veinsmobility speed ETV
vector 3 RSUExampleScenario.node[0].veinsmobility acceleration ETV
vector 4 RSUExampleScenario.node[0].veinsmobility co2emission ETV
vector 5 RSUExampleScenario.node[1].veinsmobility posx ETV
vector 6 RSUExampleScenario.node[1].veinsmobility posy ETV
vector 7 RSUExampleScenario.node[1].veinsmobility speed ETV
vector 8 RSUExampleScenario.node[1].veinsmobility acceleration ETV
vector 9 RSUExampleScenario.node[1].veinsmobility co2emission ETV
vector 10 RSUExampleScenario.node[2].veinsmobility posx ETV
vector 11 RSUExampleScenario.node[2].veinsmobility posy ETV
vector 12 RSUExampleScenario.node[2].veinsmobility speed ETV
vector 13 RSUExampleScenario.node[2].veinsmobility acceleration ETV
vector 14 RSUExampleScenario.node[2].veinsmobility co2emission ETV
vector 15 RSUExampleScenario.node[3].veinsmobility posx ETV
vector 16 RSUExampleScenario.node[3].veinsmobility posy ETV
vector 17 RSUExampleScenario.node[3].veinsmobility speed ETV
vector 18 RSUExampleScenario.node[3].veinsmobility acceleration ETV
vector 19 RSUExampleScenario.node[3].veinsmobility co2emission ETV
vector 20 RSUExampleScenario.node[4].veinsmobility posx ETV
vector 21 RSUExampleScenario.node[4].veinsmobility posy ETV
vector 22 RSUExampleScenario.node[4].veinsmobility speed ETV
vector 23 RSUExampleScenario.node[4].veinsmobility acceleration ETV
vector 24 RSUExampleScenario.node[4].veinsmobility co2emission ETV
vector 25 RSUExampleScenario.node[5].veinsmobility posx ETV
vector 26 RSUExampleScenario.node[5].veinsmobility posy ETV
vector 27 RSUExampleScenario.node[5].veinsmobility speed ETV
vector 28 RSUExampleScenario.node[5].veinsmobility acceleration ETV
vector 29 RSUExampleScenario.node[5].veinsmobility co2emission ETV
vector 30 RSUExampleScenario.node[6].veinsmobility posx ETV
vector 31 RSUExampleScenario.node[6].veinsmobility posy ETV
vector 32 RSUExampleScenario.node[6].veinsmobility speed ETV
vector 33 RSUExampleScenario.node[6].veinsmobility acceleration ETV
vector 34 RSUExampleScenario.node[6].veinsmobility co2emission ETV
vector 35 RSUExampleScenario.node[7].veinsmobility posx ETV
vector 36 RSUExampleScenario.node[7].veinsmobility posy ETV
vector 37 RSUExampleScenario.node[7].veinsmobility speed ETV
vector 38 RSUExampleScenario.node[7].veinsmobility acceleration ETV
vector 39 RSUExampleScenario.node[7].veinsmobility co2emission ETV
vector 40 RSUExampleScenario.node[8].veinsmobility posx ETV
vector 41 RSUExampleScenario.node[8].veinsmobility posy ETV
vector 42 RSUExampleScenario.node[8].veinsmobility speed ETV
vector 43 RSUExampleScenario.node[8].veinsmobility acceleration ETV
vector 44 RSUExampleScenario.node[8].veinsmobility co2emission ETV
vector 45 RSUExampleScenario.node[9].veinsmobility posx ETV
vector 46 RSUExampleScenario.node[9].veinsmobility posy ETV
vector 47 RSUExampleScenario.node[9].veinsmobility speed ETV
vector 48 RSUExampleScenario.node[9].veinsmobility acceleration ETV
vector 49 RSUExampleScenario.node[9].veinsmobility co2emission ETV
0	30	1	2414.8476884116
0	92	2	2411.8243290941
0	155	3	2407.1592244543
0	218	4	2402.288200066
0	325	5	2396.1394374635
0	433	6	2388.6993875942
0	541	7	2379.889221533
0	705	8	2370.1207192459
0	870	9	2360.3141803208
0	1035	10	2350.5099475634
0	1268	11	2341.0010868867
0	1502	12	2334.5620136983
0	1736	13	2337.6803779466
0	2050	14	2348.3497968862
0	2365	15	2358.6961674725
0	2680	16	2371.6616533546
0	3087	17	2385.4706804305
0	3495	18	2399.3588350668
0	3903	19	2412.4541998667
0	4415	20	2421.4418196582
0	4928	21	2428.417609864
0	5441	22	2431.468930052
0	6017	23	2433.1513403206
0	6647	24	2435.1237040944
0	7277	25	2437.2173147583
0	8035	26	2438.6437980286
0	8794	27	2439.5074353185
0	9553	28	2440.517813261
0	10452	29	2441.5286354903
0	11352	30	2442.5392864447
0	12252	31	2443.5505626462
0	13150	32	2444.5611125134
0	14042	33	2445.5724211388
0	14932	34	2446.5834693939
0	15816	35	2447.5934051003
0	16690	36	2448.6036931522
0	17558	37	2449.6148620235
0	18412	38	2450.6248001783
0	19252	39	2449.5880553933
0	20086	40	2448.4757357414
0	20916	41	2447.3635385588
0	21754	42	2446.250303259
0	22604	43	2445.1365203297
0	23476	44	2444.0235521834
0	24358	45	2442.9111769209
0	25256	46	2441.7982721732
0	26156	47	2440.684306104
0	27056	48	2439.7151434888
0	27956	49	2438.7737484844
0	28856	50	2437.9107171015
0	29756	51	2432.8924778887
0	30656	52	2422.5520773019
0	31556	53	2409.4660517622
0	32456	54	2395.5449973537
0	33356	55	2381.6193899736
0	34256	56	2367.6930569062
0	35156	57	2353.7872277222
0	36056	58	2339.860860692
0	36956	59	2325.9340716635
0	37856	60	2311.9813239599
0	38756	61	2298.05961774
0	39656	62	2284.1128109978
0	40556	63	2270.2025230824
0	41462	64	2256.2649786614
0	42368	65	2242.3993678549
0	43274	66	2228.5891550762
0	44186	67	2214.8325581427
0	45098	68	2201.6416096258
0	46010	69	2188.4361774691
0	46920	70	2175.4829035401
0	47828	71	2163.469439875
0	48730	72	2152.2218293687
0	49636	73	2144.5540208144
0	50544	74	2138.2551718394
0	51458	75	2131.6002070231
0	52372	76	2123.7155775784
0	53286	77	2114.5006694605
0	54206	78	2104.9775234001
0	55128	79	2095.439688597
0	56056	80	2085.9086904838
0	56984	81	2076.3890307761
0	57920	82	2066.8702421145
0	58862	83	2057.34240428
0	59804	84	2047.8150987203
0	60746	85	2037.8166775153
0	61688	86	2027.8193103167
0	62630	87	2017.8227661481
0	63572	88	2007.831200102
0	64514	89	1997.8368560664
0	65456	90	1987.8381438622
0	66404	91	1977.8461364391
0	67352	92	1967.8560683145
0	68306	93	1957.8656106598
0	69266	94	1947.8807923875
0	70226	95	1937.8869222534
0	71186	96	1928.1587290885
0	72146	97	1918.4204900709
0	73106	98	1908.6910111347
0	74066	99	1898.950029399
0	75026	100	1889.2131849088
0	75986	101	1879.4734044733
0	76946	102	1869.7512996789
0	77906	103	1860.0171904374
0	78866	104	1850.2725806668
0	79826	105	1840.5489817596
0	80786	106	1830.5916346966
0	81746	107	1820.5041291399
0	82706	108	1810.4080068684
0	83666	109	1800.4350352724
0	84626	110	1790.5007190984
0	85586	111	1780.5527316751
0	86546	112	1770.6053569681
0	87506	113	1760.6502917603
0	88466	114	1750.7061059255
0	89426	115	1740.7637053119
0	90386	116	1730.7992959174
0	91346	117	1720.8462795931
0	92306	118	1710.9035623595
0	93266	119	1700.9641785452
0	94226	120	1691.0092342703
0	95186	121	1681.0569046964
0	96146	122	1671.1090218204
0	97106	123	1661.1489211386
0	98066	124	1651.2010329571
0	99026	125	1641.2476128159
0	99987	126	1631.2920853284
0	100950	127	1621.3479562894
0	101913	128	1611.5556158548
0	102876	129	1601.7447552005
0	103839	130	1591.9226544073
0	104803	131	1582.1113591576
0	105767	132	1572.2941430485
0	106731	133	1562.4733656582
0	107696	134	1552.0875343598
0	108663	135	1541.5371698106
0	109630	136	1530.9846814517
0	110597	137	1520.4294176493
0	111566	138	1509.8675613765
0	112536	139	1498.8857549373
0	113506	140	1487.4772561054
0	114476	141	1476.0722337061
0	115447	142	1464.6709063656
0	116418	143	1453.2701668858
0	117390	144	1441.1347899758
0	118362	145	1428.5265368705
0	119336	146	1415.8968818949
0	120310	147	1403.2479004211
0	121284	148	1389.9856415186
0	122258	149	1376.6759173876
0	123232	150	1363.3952919439
0	124206	151	1349.8332975645
0	125180	152	1336.0850306945
0	126155	153	1322.4569514657
0	127131	154	1308.7088763814
0	128107	155	1294.9895434799
0	129084	156	1281.2323981362
0	130063	157	1267.4719729959
0	131043	158	1253.6566143159
0	132015	159	1239.7926053073
0	132986	160	1225.9438692034
0	133966	161	1212.0730489268
0	134942	162	1198.2133400792
0	135912	163	1184.3812502478
0	136888	164	1170.5217997464
0	137862	165	1156.6711403773
1	30	1	1578.4613427464
1	92	2	1579.5715045081
1	155	3	1581.5561876604
1	218	4	1586.4898643075
1	325	5	1592.7177137369
1	433	6	1600.2534592729
1	541	7	1609.1769437566
1	705	8	1619.0710908128
1	870	9	1629.0037637418
1	1035	10	1638.9341008412
1	1268	11	1649.1129276818
1	1502	12	1661.0453354148
1	1736	13	1673.5713017788
1	2050	14	1682.4825292248
1	2365	15	1691.8131453674
1	2680	16	1695.5671389326
1	3087	17	1697.3762977775
1	3495	18	1698.7149431584
1	3903	19	1699.9531973498
1	4415	20	1700.8030368192
1	4928	21	1701.4822415169
1	5441	22	1709.488976148
1	6017	23	1720.5600911779
1	6647	24	1733.5392477075
1	7277	25	1747.3162704222
1	8035	26	1761.1584832035
1	8794	27	1775.0702432813
1	9553	28	1788.9649324082
1	10452	29	1802.8657313576
1	11352	30	1816.7641749373
1	12252	31	1830.6712168986
1	13150	32	1844.5682703312
1	14042	33	1858.4757581847
1	14932	34	1872.3796654344
1	15816	35	1886.2682729438
1	16690	36	1900.1617258992
1	17558	37	1914.0672918586
1	18412	38	1927.95593304
1	19252	39	1941.8192613758
1	20086	40	1955.7024557721
1	20916	41	1969.5841215905
1	21754	42	1983.4787444612
1	22604	43	1997.3802024601
1	23476	44	2011.2714909082
1	24358	45	2025.1553793969
1	25256	46	2039.0458765477
1	26156	47	2052.9496203698
1	27056	48	2066.8460393334
1	27956	49	2080.7548918985
1	28856	50	2094.6231993623
1	29756	51	2107.3736665901
1	30656	52	2116.399764359
1	31556	53	2120.9300530851
1	32456	54	2120.5057507604
1	33356	55	2120.0354014402
1	34256	56	2119.5650276095
1	35156	57	2119.0953463148
1	36056	58	2118.6249713367
1	36956	59	2118.1545821056
1	37856	60	2117.6833160985
1	38756	61	2117.2130985428
1	39656	62	2116.7420331966
1	40556	63	2116.2722013043
1	41462	64	2115.8014488006
1	42368	65	2114.7993801748
1	43274	66	2112.8409852618
1	44186	67	2110.6538834767
1	45098	68	2106.1801279215
1	46010	69	2101.7014601892
1	46920	70	2096.6228276892
1	47828	71	2089.5506913159
1	48730	72	2082.9294006051
1	49636	73	2078.41548278
1	50544	74	2074.2930849763
1	51458	75	2067.3785893479
1	52372	76	2058.9617386041
1	53286	77	2049.1248138901
1	54206	78	2038.9588448284
1	55128	79	2028.777195517
1	56056	80	2018.6028443798
1	56984	81	2008.4405970024
1	57920	82	1998.2792794686
1	58862	83	1988.108301932
1	59804	84	1977.9622107418
1	60746	85	1968.2427562661
1	61688	86	1958.5243263897
1	62630	87	1948.8066965798
1	63572	88	1939.0939059975
1	64514	89	1929.3784149336
1	65456	90	1919.6586775789
1	66404	91	1909.9454579344
1	67352	92	1900.2341234796
1	68306	93	1890.522410363
1	69266	94	1880.8161792839
1	70226	95	1871.1011488996
1	71186	96	1861.143170679
1	72146	97	1851.1640054118
1	73106	98	1841.1938169524
1	74066	99	1831.2118411111
1	75026	100	1821.2341048727
1	75986	101	1811.2533600517
1	76946	102	1801.2907281723
1	77906	103	1791.3157948526
1	78866	104	1781.3301012181
1	79826	105	1771.3659382612
1	80786	106	1761.6150922393
1	81746	107	1752.0345334299
1	82706	108	1742.4457909372
1	83666	109	1732.709625164
1	84626	110	1722.9738708884
1	85586	111	1713.2247186173
1	86546	112	1703.4761668155
1	87506	113	1693.7200782262
1	88466	114	1683.9746515593
1	89426	115	1674.2309744321
1	90386	116	1664.4657284226
1	91346	117	1654.7116477657
1	92306	118	1644.9676603461
1	93266	119	1635.2269397201
1	94226	120	1625.4709696472
1	95186	121	1615.7175620133
1	96146	122	1605.9685121998
1	97106	123	1596.2074887836
1	98066	124	1586.4584337706
1	99026	125	1576.7039573677
1	99987	126	1566.9474157393
1	100950	127	1557.2020447329
1	101913	128	1547.4388517188
1	102876	129	1537.5352413319
1	103839	130	1527.6202845434
1	104803	131	1517.7162354523
1	105767	132	1507.806209527
1	106731	133	1497.8925886536
1	107696	134	1488.6150722997
1	108663	135	1479.4889502227
1	109630	136	1470.3609910375
1	110597	137	1461.2306310795
1	111566	138	1452.094568599
1	112536	139	1443.5207689619
1	113506	140	1435.480961672
1	114476	141	1427.4436042961
1	115447	142	1419.4088509055
1	116418	143	1411.3745117923
1	117390	144	1404.5696090432
1	118362	145	1398.62532588
1	119336	146	1392.6709525976
1	120310	147	1386.7074676501
1	121284	148	1382.290566301
1	122258	149	1377.9964504112
1	123232	150	1373.7117226301
1	124206	151	1370.8804764673
1	125180	152	1368.6847422272
1	126155	153	1366.2929367367
1	127131	154	1363.9665858606
1	128107	155	1361.5307975952
1	129084	156	1359.1964271227
1	130063	157	1357.1179793561
1	131043	158	1355.3368389793
1	132015	159	1353.8747536615
1	132986	160	1352.4142790101
1	133966	161	1350.9514753837
1	134942	162	1349.4898435567
1	135912	163	1348.0311244065
1	136888	164	1346.5695198243
1	137862	165	1345.1088423477
2	92	2	4.1061966058897
2	155	3	6.0195495591482
2	218	4	7.7148368984793
2	325	5	9.5879868385225
2	433	6	11.391389363371
2	541	7	13.513839789145
2	705	8	13.99235115225
2	870	9	13.890224446259
2	1035	10	13.976677174468
2	1268	11	13.994826577434
2	1502	12	13.923680325528
2	1736	13	13.923542996629
2	2050	14	13.91007151508
2	2365	15	13.964598868005
2	2680	16	13.995233640105
2	3087	17	13.952304350403
2	3495	18	13.956911946491
2	3903	19	11.503494614513
2	4415	20	7.0034946145128
2	4928	21	7.8970062485022
2	5441	22	10.10483181514
2	6017	23	11.990706169653
2	6647	24	13.981089308816
2	7277	25	13.965594365916
2	8035	26	13.989059597438
2	8794	27	13.956378436291
2	9553	28	13.910982951869
2	10452	29	13.88918493646
2	11352	30	13.908189346099
2	12252	31	13.983992603337
2	13150	32	13.971500478752
2	14042	33	13.873081948087
2	14932	34	13.985133641064
2	15816	35	13.886848415199
2	16690	36	13.876205747321
2	17558	37	13.967912819823
2	18412	38	13.871047234884
2	19252	39	13.89239756926
2	20086	40	13.872267716837
2	20916	41	13.999815066161
2	21754	42	13.964707984752
2	22604	43	13.906584702837
2	23476	44	13.922364303169
2	24358	45	13.929034490574
2	25256	46	13.93922677479
2	26156	47	13.996131014933
2	27056	48	13.96366724456
2	27956	49	13.883166816919
2	28856	50	13.935194088209
2	29756	51	13.930097484484
2	30656	52	13.948393711536
2	31556	53	13.882971800906
2	32456	54	13.87138918183
2	33356	55	13.933780807857
2	34256	56	13.942265776542
2	35156	57	13.95140511482
2	36056	58	13.886548467774
2	36956	59	13.920721456567
2	37856	60	13.906796863726
2	38756	61	13.917803910668
2	39656	62	13.924582225601
2	40556	63	13.959688465288
2	41462	64	13.957318032989
2	42368	65	13.940553226951
2	43274	66	13.879855337965
2	44186	67	13.977758804618
2	45098	68	13.914176650653
2	46010	69	13.928041475909
2	46920	70	13.977535404016
2	47828	71	13.928572678084
2	48730	72	11.372794918204
2	49636	73	6.8727949182043
2	50544	74	8.4869612548948
2	51458	75	10.454409189742
2	52372	76	12.527866983272
2	53286	77	13.991704303646
2	54206	78	13.937640864081
2	55128	79	13.909840586104
2	56056	80	13.9868867786
2	56984	81	13.884608772129
2	57920	82	13.932486002932
2	58862	83	13.933768573357
2	59804	84	13.878650632019
2	60746	85	13.945760953585
2	61688	86	13.92992599302
2	62630	87	13.882018232113
2	63572	88	13.939167882889
2	64514	89	13.977764886424
2	65456	90	13.894534370045
2	66404	91	13.966682291413
2	67352	92	13.930039903398
2	68306	93	13.975413697299
2	69266	94	13.895980606813
2	70226	95	13.916025194719
2	71186	96	13.874023362922
2	72146	97	13.903165594626
2	73106	98	13.893743275884
2	74066	99	13.891417812335
2	75026	100	13.984807741477
2	75986	101	13.97742042881
2	76946	102	13.879850411245
2	77906	103	13.943355088918
2	78866	104	13.925188815154
2	79826	105	13.917930745294
2	80786	106	13.918974985403
2	81746	107	13.907798303182
2	82706	108	13.971134671494
2	83666	109	13.903292045423
2	84626	110	13.873864978615
2	85586	111	13.928302906991
2	86546	112	13.906084672902
2	87506	113	13.931211667638
2	88466	114	13.950895552014
2	89426	115	13.871357317211
2	90386	116	13.923888866487
2	91346	117	13.902835134531
2	92306	118	13.914546723033
2	93266	119	13.889075535981
2	94226	120	13.907833835736
2	95186	121	13.919508896109
2	96146	122	13.939837559334
2	97106	123	13.967722109098
2	98066	124	13.936680997489
2	99026	125	13.927789604696
2	99987	126	13.925948096029
2	100950	127	13.970900313822
2	101913	128	13.929496678174
2	102876	129	13.878089943773
2	103839	130	13.993096217676
2	104803	131	13.875779724845
2	105767	132	13.913274697398
2	106731	133	13.919895130382
2	107696	134	13.88549514615
2	108663	135	13.879287964974
2	109630	136	13.94209516291
2	110597	137	13.94479850577
2	111566	138	13.941320902742
2	112536	139	13.916869602846
2	113506	140	13.969763523631
2	114476	141	13.879654002239
2	115447	142	13.953375940905
2	116418	143	13.932419939607
2	117390	144	13.946562061303
2	118362	145	13.880639836157
2	119336	146	13.945333202807
2	120310	147	13.879452574104
2	121284	148	13.994609436856
2	122258	149	13.989116368371
2	123232	150	13.909947179651
2	124206	151	13.943677626096
2	125180	152	13.875283944777
2	126155	153	13.903718187669
2	127131	154	13.873559639372
2	128107	155	13.872771426148
2	129084	156	13.96645391315
2	130063	157	13.906553854011
2	131043	158	13.974751957422
2	132015	159	13.976185514266
2	132986	160	13.998359918438
2	133966	161	13.959418661566
2	134942	162	13.990113809092
2	135912	163	13.948902800528
2	136888	164	13.900080059238
2	137862	165	13.932041595592
3	155	3	1.9133529532584
3	218	4	1.6952873393311
3	325	5	1.8731499400432
3	433	6	1.8034025248489
3	541	7	2.1224504257739
3	705	8	0.47851136310433
3	870	9	-0.1021267059911
3	1035	10	0.086452728209551
3	1268	11	0.018149402965792
3	1502	12	-0.071146251906175
3	1736	13	-0.0001373288989992
3	2050	14	-0.013471481548622
3	2365	15	0.054527352924923
3	2680	16	0.03063477210002
3	3087	17	-0.04292928970186
3	3495	18	0.0046075960877356
3	3903	19	-2.4534173319781
3	4415	20	-4.5
3	4928	21	0.8935116339894
3	5441	22	2.2078255666373
3	6017	23	1.8858743545134
3	6647	24	1.9903831391631
3	7277	25	-0.01549494290026
3	8035	26	0.023465231521987
3	8794	27	-0.032681161146611
3	9553	28	-0.045395484422334
3	10452	29	-0.021798015409148
3	11352	30	0.019004409639164
3	12252	31	0.075803257238585
3	13150	32	-0.012492124584968
3	14042	33	-0.098418530665803
3	14932	34	0.11205169297755
3	15816	35	-0.098285225864965
3	16690	36	-0.01064266787842
3	17558	37	0.091707072502468
3	18412	38	-0.096865584938786
3	19252	39	0.021350334375166
3	20086	40	-0.020129852422979
3	20916	41	0.12754734932445
3	21754	42	-0.035107081409079
3	22604	43	-0.058123281914741
3	23476	44	0.015779600332026
3	24358	45	0.0066701874043797
3	25256	46	0.010192284216172
3	26156	47	0.056904240143485
3	27056	48	-0.032463770373724
3	27956	49	-0.080500427640509
3	28856	50	0.052027271289843
3	29756	51	-0.0050966037251055
3	30656	52	0.018296227052343
3	31556	53	-0.065421910630539
3	32456	54	-0.011582619075197
3	33356	55	0.062391626026946
3	34256	56	0.0084849686850799
3	35156	57	0.0091393382777465
3	36056	58	-0.064856647045817
3	36956	59	0.034172988792415
3	37856	60	-0.013924592840485
3	38756	61	0.011007046941668
3	39656	62	0.0067783149331806
3	40556	63	0.035106239686721
3	41462	64	-0.0023704322986315
3	42368	65	-0.016764806038699
3	43274	66	-0.060697888985743
3	44186	67	0.097903466653079
3	45098	68	-0.063582153965253
3	46010	69	0.013864825256169
3	46920	70	0.049493928106967
3	47828	71	-0.048962725931778
3	48730	72	-2.5557777598798
3	49636	73	-4.5
3	50544	74	1.6141663366905
3	51458	75	1.9674479348469
3	52372	76	2.0734577935305
3	53286	77	1.4638373203733
3	54206	78	-0.054063439564779
3	55128	79	-0.027800277976786
3	56056	80	0.077046192495619
3	56984	81	-0.1022780064703
3	57920	82	0.04787723080255
3	58862	83	0.0012825704249551
3	59804	84	-0.055117941338104
3	60746	85	0.067110321565998
3	61688	86	-0.015834960564971
3	62630	87	-0.047907760906964
3	63572	88	0.057149650775827
3	64514	89	0.038597003535834
3	65456	90	-0.0832305163797
3	66404	91	0.072147921368014
3	67352	92	-0.036642388014588
3	68306	93	0.045373793900945
3	69266	94	-0.079433090486564
3	70226	95	0.020044587906449
3	71186	96	-0.04200183179695
3	72146	97	0.029142231703736
3	73106	98	-0.0094223187421445
3	74066	99	-0.0023254635487682
3	75026	100	0.093389929141848
3	75986	101	-0.0073873126669781
3	76946	102	-0.097570017564577
3	77906	103	0.063504677673336
3	78866	104	-0.0181662737648
3	79826	105	-0.0072580698598177
3	80786	106	0.0010442401096231
3	81746	107	-0.011176682221704
3	82706	108	0.063336368312594
3	83666	109	-0.067842626071069
3	84626	110	-0.029427066808568
3	85586	111	0.05443792837672
3	86546	112	-0.022218234089669
3	87506	113	0.025126994736494
3	88466	114	0.019683884375262
3	89426	115	-0.079538234802893
3	90386	116	0.052531549276317
3	91346	117	-0.021053731956053
3	92306	118	0.01171158850193
3	93266	119	-0.025471187052316
3	94226	120	0.018758299755865
3	95186	121	0.011675060372799
3	96146	122	0.020328663224355
3	97106	123	0.027884549763986
3	98066	124	-0.031041111608502
3	99026	125	-0.0088913927925756
3	99987	126	-0.0018415086669847
3	100950	127	0.044952217792162
3	101913	128	-0.041403635647148
3	102876	129	-0.051406734401827
3	103839	130	0.11500627390342
3	104803	131	-0.11731649283087
3	105767	132	0.037494972553104
3	106731	133	0.0066204329836186
3	107696	134	-0.034399984232149
3	108663	135	-0.0062071811757054
3	109630	136	0.062807197936344
3	110597	137	0.0027033428591672
3	111566	138	-0.0034776030271306
3	112536	139	-0.024451299896464
3	113506	140	0.052893920785282
3	114476	141	-0.090109521392732
3	115447	142	0.073721938666422
3	116418	143	-0.020956001298037
3	117390	144	0.014142121695913
3	118362	145	-0.065922225145624
3	119336	146	0.064693366650026
3	120310	147	-0.065880628703161
3	121284	148	0.11515686275204
3	122258	149	-0.0054930684855208
3	123232	150	-0.079169188719241
3	124206	151	0.033730446444824
3	125180	152	-0.068393681319431
3	126155	153	0.028434242892544
3	127131	154	-0.030158548296894
3	128107	155	-0.00078821322414946
3	129084	156	0.093682487001642
3	130063	157	-0.05990005913889
3	131043	158	0.068198103411122
3	132015	159	0.0014335568435495
3	132986	160	0.022174404172693
3	133966	161	-0.038941256871913
3	134942	162	0.030695147525986
3	135912	163	-0.04121100856457
3	136888	164	-0.048822741289623
3	137862	165	0.03196153635392
4	155	3	4.1962556146115
4	218	4	4.6765885426193
4	325	5	5.9822455727343
4	433	6	6.7469998477461
4	541	7	8.9023657158011
4	705	8	3.651678681686
4	870	9	1.6857621818206
4	1035	10	2.3276633668785
4	1268	11	2.0995306276608
4	1502	12	1.7923040941768
4	1736	13	2.0305681317735
4	2050	14	1.9844951865828
4	2365	15	2.2187318873595
4	2680	16	2.1416854339172
4	3087	17	1.8896148890835
4	3495	18	2.0499339673421
4	3903	19	0.973
4	4415	20	0.973
4	4928	21	3.236958348016
4	5441	22	7.0694109561587
4	6017	23	7.2974163894139
4	6647	24	8.7433911631671
4	7277	25	1.9831721788576
4	8035	26	2.116835898497
4	8794	27	1.9244585801898
4	9553	28	1.8775583559564
4	10452	29	1.9545657515643
4	11352	30	2.0931646705581
4	12252	31	2.2926746988581
4	13150	32	1.993865292131
4	14042	33	1.6968396252803
4	14932	34	2.4149847823944
4	15816	35	1.6983583398882
4	16690	36	1.9906198998388
4	17558	37	2.3442713071536
4	18412	38	1.7018725964397
4	19252	39	2.0993392475273
4	20086	40	1.9585122345881
4	20916	41	2.4691677522194
4	21754	42	1.9170802753567
4	22604	43	1.8345014514108
4	23476	44	2.0838538984303
4	24358	45	2.0539801513469
4	25256	46	2.0668686152862
4	26156	47	2.2303927536846
4	27056	48	1.9258780187507
4	27956	49	1.7575763826419
4	28856	50	2.2069449408324
4	29756	51	2.0145873760113
4	30656	52	2.0950692067684
4	31556	53	1.8080099866508
4	32456	54	1.9870007069688
4	33356	55	2.2415869227426
4	34256	56	2.0614496349521
4	35156	57	2.0646020593826
4	36056	58	1.8102089718445
4	36956	59	2.1453880261281
4	37856	60	1.9826536733129
4	38756	61	2.0673636130683
4	39656	62	2.0538817544551
4	40556	63	2.1528270365066
4	41462	64	2.0265038417738
4	42368	65	1.9764402783138
4	43274	66	1.823544423566
4	44186	67	2.3663700564531
4	45098	68	1.816863137639
4	46010	69	2.0780272006119
4	46920	70	2.2032702170206
4	47828	71	1.8671845150559
4	48730	72	0.973
4	49636	73	0.973
4	50544	74	4.8774299996936
4	51458	75	6.6768837345915
4	52372	76	8.1561980355976
4	53286	77	6.9740576405764
4	54206	78	1.8508696851047
4	55128	79	1.9364383963061
4	56056	80	2.2972138031298
4	56984	81	1.684823067126
4	57920	82	2.1926999225795
4	58862	83	2.0363789456198
4	59804	84	1.8421031736648
4	60746	85	2.2588493406892
4	61688	86	1.9785202232272
4	62630	87	1.866522840978
4	63572	88	2.2246081928829
4	64514	89	2.1665886194004
4	65456	90	1.7493699939429
4	66404	91	2.2782826967557
4	67352	92	1.908677970281
4	68306	93	2.1891507767845
4	69266	94	1.7622054562569
4	70226	95	2.0974873772285
4	71186	96	1.8855500369507
4	72146	97	2.1265985206215
4	73106	98	1.996444163955
4	74066	99	2.0199719555639
4	75026	100	2.3520461315502
4	75986	101	2.0116492969017
4	76946	102	1.7002051043368
4	77906	103	2.2464484993577
4	78866	104	1.9702312999156
4	79826	105	2.0061116329298
4	80786	106	2.034066117875
4	81746	107	1.9919626912412
4	82706	108	2.2491467887952
4	83666	109	1.801645761541
4	84626	110	1.9275805532869
4	85586	111	2.2142473281802
4	86546	112	1.9547885065368
4	87506	113	2.1161730534347
4	88466	114	2.1000013822706
4	89426	115	1.7598221323579
4	90386	116	2.2073420892884
4	91346	117	1.9583768000689
4	92306	118	2.0693856456067
4	93266	119	1.9422601130718
4	94226	120	2.092301926381
4	95186	121	2.0697828429829
4	96146	122	2.1009856448383
4	97106	123	2.1294068625698
4	98066	124	1.9281102323074
4	99026	125	2.001617207983
4	99987	126	2.0250938266493
4	100950	127	2.1872200333991
4	101913	128	1.8926438004705
4	102876	129	1.8544662206567
4	103839	130	2.4259796074968
4	104803	131	1.633853726441
4	105767	132	2.1557066895618
4	106731	133	2.0528665696243
4	107696	134	1.912038644498
4	108663	135	2.0057614883071
4	109630	136	2.2439569957465
4	110597	137	2.0422831708116
4	111566	138	2.0211586772768
4	112536	139	1.9483398360883
4	113506	140	2.2138288263991
4	114476	141	1.7251450962234
4	115447	142	2.2819838168352
4	116418	143	1.9615701670856
4	117390	144	2.0809115709552
4	118362	145	1.8061360510748
4	119336	146	2.2506757699835
4	120310	147	1.8061733875953
4	121284	148	2.4266845615448
4	122258	149	2.0192126891949
4	123232	150	1.7642446806966
4	124206	151	2.1464322636876
4	125180	152	1.7974124880532
4	126155	153	2.1242863361538
4	127131	154	1.9251059726377
4	128107	155	2.023226590392
4	129084	156	2.3507388887241
4	130063	157	1.8285439096
4	131043	158	2.2659461406282
4	132015	159	2.041236054439
4	132986	160	2.1134871274209
4	133966	161	1.9036851063429
4	134942	162	2.1413264045017
4	135912	163	1.8950788450201
4	136888	164	1.8650863811811
4	137862	165	2.1392105637573
5	218	4	2414.8767583254
5	325	5	2411.8725636174
5	433	6	2407.2970525089
5	541	7	2402.4626210862
5	705	8	2396.3056860371
5	870	9	2388.8743536096
5	1035	10	2380.097228827
5	1268	11	2370.3507264333
5	1502	12	2360.5878487076
5	1736	13	2350.7849318213
5	2050	14	2341.2418729237
5	2365	15	2334.6305580324
5	2680	16	2337.3467480277
5	3087	17	2348.0519014368
5	3495	18	2358.3998493504
5	3903	19	2371.2788021446
5	4415	20	2385.0887639745
5	4928	21	2398.4985461925
5	5441	22	2411.2485283293
5	6017	23	2420.6905829484
5	6647	24	2427.6440450998
5	7277	25	2431.3031180431
5	8035	26	2432.9057471878
5	8794	27	2434.8184996871
5	9553	28	2436.9106889558
5	10452	29	2438.5031214217
5	11352	30	2439.359314087
5	12252	31	2440.3695716034
5	13150	32	2441.3815056744
5	14042	33	2442.392207776
5	14932	34	2443.4019859718
5	15816	35	2444.4122552489
5	16690	36	2445.4251439738
5	17558	37	2446.4367595227
5	18412	38	2447.4467230743
5	19252	39	2448.4574488286
5	20086	40	2449.467800329
5	20916	41	2450.4780716181
5	21754	42	2449.7461704329
5	22604	43	2448.6331060936
5	23476	44	2447.5209445587
5	24358	45	2446.407523851
5	25256	46	2445.2946584851
5	26156	47	2444.182081618
5	27056	48	2443.0687840062
5	27956	49	2441.9541470137
5	28856	50	2440.8405835511
5	29756	51	2439.8469352948
5	30656	52	2438.9063108974
5	31556	53	2438.2222934578
5	32456	54	2433.8714084149
5	33356	55	2424.1610430968
5	34256	56	2411.2824245994
5	35156	57	2397.4053674415
5	36056	58	2383.4935014362
5	36956	59	2369.5684130241
5	37856	60	2355.6396005043
5	38756	61	2341.7251847364
5	39656	62	2327.7986236513
5	40556	63	2313.8536340321
5	41462	64	2299.9326603578
5	42368	65	2286.0173803706
5	43274	66	2272.081688305
5	44186	67	2258.14237399
5	45098	68	2244.2509350305
5	46010	69	2230.462746943
5	46920	70	2216.6800139435
5	47828	71	2203.454892604
5	48730	72	2190.2560583679
5	49636	73	2177.1760280816
5	50544	74	2165.1906804949
5	51458	75	2153.7351656426
5	52372	76	2145.4787618433
5	53286	77	2139.4715587363
5	54206	78	2133.0862376693
5	55128	79	2125.6661275045
5	56056	80	2116.8210220488
5	56984	81	2107.2889442913
5	57920	82	2097.7518638273
5	58862	83	2088.2423811529
5	59804	84	2078.6989431683
5	60746	85	2069.1759886564
5	61688	86	2059.6469034123
5	62630	87	2050.126601582
5	63572	88	2040.2313690578
5	64514	89	2030.2483139759
5	65456	90	2020.2767339473
5	66404	91	2010.2857619761
5	67352	92	2000.2937532259
5	68306	93	1990.2980822613
5	69266	94	1980.3020910891
5	70226	95	1970.3069906845
5	71186	96	1960.3132596025
5	72146	97	1950.3265823337
5	73106	98	1940.3301387507
5	74066	99	1930.5254361554
5	75026	100	1920.794808011
5	75986	101	1911.0480155569
5	76946	102	1901.3181529989
5	77906	103	1891.5777855649
5	78866	104	1881.8411371025
5	79826	105	1872.0911184147
5	80786	106	1862.3538466101
5	81746	107	1852.6159501655
5	82706	108	1842.8792573911
5	83666	109	1833.0044395523
5	84626	110	1822.9031835836
5	85586	111	1812.7965345689
5	86546	112	1802.7779863045
5	87506	113	1792.8183326998
5	88466	114	1782.858195498
5	89426	115	1772.9063706852
5	90386	116	1762.9519287581
5	91346	117	1752.9995466862
5	92306	118	1743.0620521735
5	93266	119	1733.0983644575
5	94226	120	1723.1436703616
5	95186	121	1713.1942619743
5	96146	122	1703.2348387201
5	97106	123	1693.2886168724
5	98066	124	1683.3342460284
5	99026	125	1673.3970202798
5	99987	126	1663.4486085036
5	100950	127	1653.4947448055
5	101913	128	1643.5400433266
5	102876	129	1633.5927869574
5	103839	130	1623.6345940069
5	104803	131	1613.8044652866
5	105767	132	1603.9764956634
5	106731	133	1594.155821463
5	107696	134	1584.3335265149
5	108663	135	1574.5129266913
5	109630	136	1564.6886697317
5	110597	137	1554.4557685012
5	111566	138	1543.9044764388
5	112536	139	1533.3699625423
5	113506	140	1522.8137722788
5	114476	141	1512.2611844548
5	115447	142	1501.4781030056
5	116418	143	1490.0690376047
5	117390	144	1478.6598397208
5	118362	145	1467.2464023964
5	119336	146	1455.8321972167
5	120310	147	1443.9902473841
5	121284	148	1431.3682313593
5	122258	149	1418.7464188015
5	123232	150	1406.1051833599
5	124206	151	1393.0104993186
5	125180	152	1379.7102031964
5	126155	153	1366.3891238576
5	127131	154	1352.9518687321
5	128107	155	1339.1523853162
5	129084	156	1325.5320285074
5	130063	157	1311.8063276309
5	131043	158	1298.091495413
5	132015	159	1284.3501479352
5	132986	160	1270.5579680811
5	133966	161	1256.7628443661
5	134942	162	1242.8999868279
5	135912	163	1229.0512832163
5	136888	164	1215.1940622355
5	137862	165	1201.3363231206
6	218	4	1578.4506684253
6	325	5	1579.5537930429
6	433	6	1581.4165868293
6	541	7	1586.3131998433
6	705	8	1592.5493268352
6	870	9	1600.0762428036
6	1035	10	1608.9662610246
6	1268	11	1618.8381252186
6	1502	12	1628.7265753681
6	1736	13	1638.6555796713
6	2050	14	1648.8046840783
6	2365	15	1660.6325348346
6	2680	16	1673.301875555
6	3087	17	1682.2138796467
6	3495	18	1691.5459182626
6	3903	19	1695.5099147679
6	4415	20	1697.3308411958
6	4928	21	1698.6335971011
6	5441	22	1699.8391930545
6	6017	23	1700.7320023719
6	6647	24	1701.2941834759
6	7277	25	1708.3978488175
6	8035	26	1718.9439634858
6	8794	27	1731.5308475178
6	9553	28	1745.2985167308
6	10452	29	1759.1189484736
6	11352	30	1773.033284259
6	12252	31	1786.9263172904
6	13150	32	1800.8424062571
6	14042	33	1814.7415532097
6	14932	34	1828.6279946407
6	15816	35	1842.5211894047
6	16690	36	1856.4504067414
6	17558	37	1870.362115399
6	18412	38	1884.2511058366
6	19252	39	1898.150578063
6	20086	40	1912.0449035605
6	20916	41	1925.9381259941
6	21754	42	1939.8457802581
6	22604	43	1953.7382693188
6	23476	44	1967.6194902081
6	24358	45	1981.5164272105
6	25256	46	1995.4064328251
6	26156	47	2009.2928376002
6	27056	48	2023.1882382063
6	27956	49	2037.1003560228
6	28856	50	2050.9990747916
6	29756	51	2064.8988516061
6	30656	52	2078.7963186642
6	31556	53	2092.7184412526
6	32456	54	2105.7452533105
6	33356	55	2115.4284047112
6	34256	56	2120.5179101396
6	35156	57	2120.5685863541
6	36056	58	2120.0987011604
6	36956	59	2119.6283693695
6	37856	60	2119.1579117924
6	38756	61	2118.6879404793
6	39656	62	2118.2175589465
6	40556	63	2117.7465549754
6	41462	64	2117.2763621621
6	42368	65	2116.8063616585
6	43274	66	2116.3356717201
6	44186	67	2115.8648594366
6	45098	68	2115.0619467115
6	46010	69	2113.1066750698
6	46920	70	2111.1521770013
6	47828	71	2106.7951090792
6	48730	72	2102.3186790552
6	49636	73	2097.6195433736
6	50544	74	2090.5639584912
6	51458	75	2083.8202777747
6	52372	76	2078.9598632222
6	53286	77	2075.264378991
6	54206	78	2068.9649287239
6	55128	79	2061.0439528301
6	56056	80	2051.601792872
6	56984	81	2041.4262892129
6	57920	82	2031.2454451593
6	58862	83	2021.094061777
6	59804	84	2010.9064310631
6	60746	85	2000.7406664789
6	61688	86	1990.5683573317
6	62630	87	1980.4054244878
6	63572	88	1970.5900753122
6	64514	89	1960.885558228
6	65456	90	1951.192196032
6	66404	91	1941.4799829489
6	67352	92	1931.7667620145
6	68306	93	1922.0499810446
6	69266	94	1912.3328888016
6	70226	95	1902.6166624734
6	71186	96	1892.9017672613
6	72146	97	1883.1937290542
6	73106	98	1873.4761970229
6	74066	99	1863.5684306175
6	75026	100	1853.5970645184
6	75986	101	1843.6091342
6	76946	102	1833.6385526285
6	77906	103	1823.6572062867
6	78866	104	1813.6796709253
6	79826	105	1803.6884345561
6	80786	106	1793.7102604304
6	81746	107	1783.7314462112
6	82706	108	1773.7538654422
6	83666	109	1763.9066417897
6	84626	110	1754.3130235933
6	85586	111	1744.7142833788
6	86546	112	1735.0057465201
6	87506	113	1725.2451612446
6	88466	114	1715.4841020387
6	89426	115	1705.7311890777
6	90386	116	1695.9757113121
6	91346	117	1686.2222522302
6	92306	118	1676.4833831424
6	93266	119	1666.7188443877
6	94226	120	1656.9631194929
6	95186	121	1647.2125746598
6	96146	122	1637.4522151304
6	97106	123	1627.7047931459
6	98066	124	1617.9493850423
6	99026	125	1608.2107793465
6	99987	126	1598.4612112045
6	100950	127	1588.7063001106
6	101913	128	1578.9505679803
6	102876	129	1569.2021321515
6	103839	130	1559.4429783355
6	104803	131	1549.7089612819
6	105767	132	1539.788080181
6	106731	133	1529.8745634733
6	107696	134	1519.9594106944
6	108663	135	1510.0459690662
6	109630	136	1500.1288357275
6	110597	137	1490.6636075694
6	111566	138	1481.5366831878
6	112536	139	1472.4242720101
6	113506	140	1463.2931106575
6	114476	141	1454.1650654357
6	115447	142	1445.3476507636
6	116418	143	1437.3074441999
6	117390	144	1429.267144273
6	118362	145	1421.2238567239
6	119336	146	1413.1800280511
6	120310	147	1405.9158421224
6	121284	148	1399.965070297
6	122258	149	1394.0143943978
6	123232	150	1388.0545613924
6	124206	151	1383.2664760798
6	125180	152	1378.9754019491
6	126155	153	1374.6776225287
6	127131	154	1371.1685507102
6	128107	155	1369.2228746172
6	129084	156	1366.8330850732
6	130063	157	1364.4630567702
6	131043	158	1362.1115303906
6	132015	159	1359.6778770387
6	132986	160	1357.5862051165
6	133966	161	1355.6644190708
6	134942	162	1354.2024551872
6	135912	163	1352.7419839622
6	136888	164	1351.2806145037
6	137862	165	1349.8191904034
7	325	5	4.0332649588119
7	433	6	5.8265110515686
7	541	7	7.7852127750962
7	705	8	9.5658873894228
7	870	9	11.450149483434
7	1035	10	13.391487500134
7	1268	11	13.949883621705
7	1502	12	13.87602620427
7	1736	13	13.885232782268
7	2050	14	13.987373048679
7	2365	15	13.890608048609
7	2680	16	13.887004709987
7	3087	17	13.926980708602
7	3495	18	13.89086526999
7	3903	19	13.965056618985
7	4415	20	13.946692067499
7	4928	21	13.097137451398
7	5441	22	11.939132677032
7	6017	23	7.4783001788439
7	6647	24	7.8592269216425
7	7277	25	9.5749213322898
7	8035	26	11.610942506126
7	8794	27	13.581243869506
7	9553	28	13.973211987913
7	10452	29	13.918392209036
7	11352	30	13.928662607018
7	12252	31	13.985277111761
7	13150	32	13.95532245066
7	14042	33	13.938708755139
7	14932	34	13.908545650935
7	15816	35	13.927478809105
7	16690	36	13.897819017794
7	17558	37	13.989504252097
7	18412	38	13.94374062394
7	19252	39	13.903882643976
7	20086	40	13.969130632835
7	20916	41	13.884234787642
7	21754	42	13.881978327318
7	22604	43	13.927070145076
7	23476	44	13.922745489741
7	24358	45	13.95273740395
7	25256	46	13.968270483359
7	26156	47	13.917333146422
7	27056	48	13.978096232978
7	27956	49	13.905527922611
7	28856	50	13.987333519601
7	29756	51	13.975779179661
7	30656	52	13.972185968615
7	31556	53	13.965476403411
7	32456	54	13.989670229855
7	33356	55	13.951804798429
7	34256	56	13.892850009208
7	35156	57	13.958218119799
7	36056	58	13.933717581006
7	36956	59	13.982012811573
7	37856	60	13.954506225567
7	38756	61	13.954468280503
7	39656	62	13.914126337939
7	40556	63	13.998578815588
7	41462	64	13.932968401979
7	42368	65	13.954534002345
7	43274	66	13.998651232829
7	44186	67	13.999179182528
7	45098	68	13.886099785112
7	46010	69	13.881868150404
7	46920	70	13.887636745651
7	47828	71	13.978686858166
7	48730	72	13.970344127666
7	49636	73	13.925369204739
7	50544	74	13.734871505992
7	51458	75	12.041801207684
7	52372	76	7.5618083450866
7	53286	77	7.9025852095184
7	54206	78	9.7842799690982
7	55128	79	11.75802134276
7	56056	80	13.864116582327
7	56984	81	13.914205637665
7	57920	82	13.944517719341
7	58862	83	13.888510530582
7	59804	84	13.93060620233
7	60746	85	13.96231306632
7	61688	86	13.989832558867
7	62630	87	13.923362842468
7	63572	88	13.975876405358
7	64514	89	13.93839835058
7	65456	90	13.920164887339
7	66404	91	13.987886479371
7	67352	92	13.946328101926
7	68306	93	13.963491377556
7	69266	94	13.876388441026
7	70226	95	13.944492442033
7	71186	96	13.894819367053
7	72146	97	13.957421940223
7	73106	98	13.966641563782
7	74066	99	13.914598768649
7	75026	100	13.908863330737
7	75986	101	13.894138623725
7	76946	102	13.901235898403
7	77906	103	13.94990811937
7	78866	104	13.921953043812
7	79826	105	13.929129816229
7	80786	106	13.972520478747
7	81746	107	13.966326907934
7	82706	108	13.917178003544
7	83666	109	13.980019052739
7	84626	110	13.912149368362
7	85586	111	13.925299010561
7	86546	112	13.971667353138
7	87506	113	13.997767098004
7	88466	114	13.874052066777
7	89426	115	13.961325571053
7	90386	116	13.912843838311
7	91346	117	13.99909973809
7	92306	118	13.891907208129
7	93266	119	13.981709067484
7	94226	120	13.969281604877
7	95186	121	13.998854121848
7	96146	122	13.912258324688
7	97106	123	13.966891703121
7	98066	124	13.962322883802
7	99026	125	13.878805396154
7	99987	126	13.878500387196
7	100950	127	13.992085839964
7	101913	128	13.908229774833
7	102876	129	13.916499383454
7	103839	130	13.933658458372
7	104803	131	13.906395649859
7	105767	132	13.981866144668
7	106731	133	13.928634459185
7	107696	134	13.90009441277
7	108663	135	13.90528861128
7	109630	136	13.973518176838
7	110597	137	13.887332082232
7	111566	138	13.946347575046
7	112536	139	13.932372469571
7	113506	140	13.922565494154
7	114476	141	13.941802534193
7	115447	142	13.878026930129
7	116418	143	13.948313778332
7	117390	144	13.873854416783
7	118362	145	13.963481205879
7	119336	146	13.912713737588
7	120310	147	13.942506781972
7	121284	148	13.972165655468
7	122258	149	13.891318765867
7	123232	150	13.956205403581
7	124206	151	13.983408746312
7	125180	152	13.962169502974
7	126155	153	13.920104354369
7	127131	154	13.976492808063
7	128107	155	13.901581228583
7	129084	156	13.906028024494
7	130063	157	13.914737260898
7	131043	158	13.950045745743
7	132015	159	13.904620322774
7	132986	160	13.933968535068
7	133966	161	13.880763591561
7	134942	162	13.883516404654
7	135912	163	13.902039464698
7	136888	164	13.974824944639
7	137862	165	13.982017293202
8	433	6	1.7932460927567
8	541	7	1.9587017235276
8	705	8	1.7806746143266
8	870	9	1.8842620940111
8	1035	10	1.9413380167005
8	1268	11	0.5583961215709
8	1502	12	-0.073857417434921
8	1736	13	0.0092065779981212
8	2050	14	0.10214026641101
8	2365	15	-0.096765000070445
8	2680	16	-0.0036033386224883
8	3087	17	0.039975998615846
8	3495	18	-0.036115438612178
8	3903	19	0.074191348995083
8	4415	20	-0.018364551486448
8	4928	21	-0.84955461610103
8	5441	22	-1.1580047743662
8	6017	23	-4.4608324981877
8	6647	24	0.38092674279862
8	7277	25	1.7156944106473
8	8035	26	2.0360211738362
8	8794	27	1.9703013633797
8	9553	28	0.39196811840698
8	10452	29	-0.054819778876846
8	11352	30	0.010270397982096
8	12252	31	0.056614504742901
8	13150	32	-0.029954661100637
8	14042	33	-0.016613695521373
8	14932	34	-0.030163104203529
8	15816	35	0.018933158169965
8	16690	36	-0.029659791311714
8	17558	37	0.091685234303586
8	18412	38	-0.045763628156855
8	19252	39	-0.039857979963999
8	20086	40	0.065247988859191
8	20916	41	-0.08489584519295
8	21754	42	-0.0022564603248618
8	22604	43	0.045091817758511
8	23476	44	-0.0043246553349299
8	24358	45	0.029991914208512
8	25256	46	0.015533079409506
8	26156	47	-0.050937336937059
8	27056	48	0.060763086555527
8	27956	49	-0.072568310366478
8	28856	50	0.081805596989579
8	29756	51	-0.011554339940194
8	30656	52	-0.0035932110459544
8	31556	53	-0.0067095652036375
8	32456	54	0.024193826443517
8	33356	55	-0.037865431425162
8	34256	56	-0.058954789221753
8	35156	57	0.065368110591081
8	36056	58	-0.024500538792926
8	36956	59	0.048295230567454
8	37856	60	-0.027506586005911
8	38756	61	-3.7945064249811e-05
8	39656	62	-0.040341942564119
8	40556	63	0.08445247764932
8	41462	64	-0.065610413609539
8	42368	65	0.021565600365866
8	43274	66	0.044117230484263
8	44186	67	0.0005279496987356
8	45098	68	-0.11307939741528
8	46010	69	-0.0042316347081215
8	46920	70	0.0057685952470639
8	47828	71	0.091050112515221
8	48730	72	-0.0083427305007344
8	49636	73	-0.044974922926631
8	50544	74	-0.19049769874667
8	51458	75	-1.6930702983084
8	52372	76	-4.4799928625974
8	53286	77	0.34077686443177
8	54206	78	1.8816947595798
8	55128	79	1.9737413736619
8	56056	80	2.1060952395666
8	56984	81	0.050089055338216
8	57920	82	0.030312081675511
8	58862	83	-0.056007188758812
8	59804	84	0.042095671747811
8	60746	85	0.031706863990985
8	61688	86	0.027519492546562
8	62630	87	-0.066469716399443
8	63572	88	0.052513562890235
8	64514	89	-0.037478054778184
8	65456	90	-0.018233463240321
8	66404	91	0.067721592031884
8	67352	92	-0.041558377444744
8	68306	93	0.017163275629283
8	69266	94	-0.087102936529554
8	70226	95	0.068104001006576
8	71186	96	-0.0496730749798
8	72146	97	0.062602573169862
8	73106	98	0.0092196235596198
8	74066	99	-0.052042795133312
8	75026	100	-0.0057354379119339
8	75986	101	-0.014724707012066
8	76946	102	0.0070972746773634
8	77906	103	0.04867222096771
8	78866	104	-0.027955075558275
8	79826	105	0.0071767724165692
8	80786	106	0.043390662518796
8	81746	107	-0.0061935708136307
8	82706	108	-0.049148904390167
8	83666	109	0.062841049195267
8	84626	110	-0.06786968437722
8	85586	111	0.013149642199277
8	86546	112	0.04636834257748
8	87506	113	0.026099744865204
8	88466	114	-0.12371503122617
8	89426	115	0.087273504275364
8	90386	116	-0.04848173274193
8	91346	117	0.086255899779498
8	92306	118	-0.10719252996147
8	93266	119	0.089801859355065
8	94226	120	-0.012427462607157
8	95186	121	0.029572516970802
8	96146	122	-0.086595797159243
8	97106	123	0.054633378433063
8	98066	124	-0.0045688193198288
8	99026	125	-0.083517487647478
8	99987	126	-0.00030500895809382
8	100950	127	0.11358545276802
8	101913	128	-0.083856065131258
8	102876	129	0.0082696086214842
8	103839	130	0.017159074917435
8	104803	131	-0.027262808512896
8	105767	132	0.075470494809561
8	106731	133	-0.053231685482897
8	107696	134	-0.028540046415291
8	108663	135	0.0051941985101429
8	109630	136	0.068229565557559
8	110597	137	-0.086186094605365
8	111566	138	0.059015492813197
8	112536	139	-0.013975105474238
8	113506	140	-0.0098069754173054
8	114476	141	0.019237040039153
8	115447	142	-0.063775604064576
8	116418	143	0.070286848202812
8	117390	144	-0.074459361548069
8	118362	145	0.089626789095345
8	119336	146	-0.050767468290868
8	120310	147	0.029793044384569
8	121284	148	0.029658873495645
8	122258	149	-0.080846889601089
8	123232	150	0.064886637714226
8	124206	151	0.027203342730646
8	125180	152	-0.02123924333835
8	126155	153	-0.042065148605035
8	127131	154	0.056388453694527
8	128107	155	-0.074911579480396
8	129084	156	0.004446795911063
8	130063	157	0.0087092364043926
8	131043	158	0.035308484844863
8	132015	159	-0.045425422969274
8	132986	160	0.029348212294281
8	133966	161	-0.053204943507444
8	134942	162	0.0027528130938297
8	135912	163	0.018523060043808
8	136888	164	0.07278547994094
8	137862	165	0.0071923485631125
9	433	6	3.9274001426868
9	541	7	5.2041356246368
9	705	8	5.7574507674447
9	870	9	7.0006276784153
9	1035	10	8.2432295261252
9	1268	11	3.9110016848773
9	1502	12	1.7792042638201
9	1736	13	2.0579365757541
9	2050	14	2.3818636967155
9	2365	15	1.7037407999188
9	2680	16	2.0152488537881
9	3087	17	2.1655550639215
9	3495	18	1.906797412239
9	3903	19	2.2849654495652
9	4415	20	1.9716653983805
9	4928	21	0.973
9	5441	22	0.973
9	6017	23	0.973
9	6647	24	2.2554772362628
9	7277	25	5.6120472675651
9	8035	26	7.5119842129131
9	8794	27	8.4455276517466
9	9553	28	3.3560730035355
9	10452	29	1.8466200733259
9	11352	30	2.0660268329645
9	12252	31	2.2281549844786
9	13150	32	1.9335288120447
9	14042	33	1.9767670407741
9	14932	34	1.9283950769156
9	15816	35	2.0949799016024
9	16690	36	1.9290667558988
9	17558	37	2.3468857079218
9	18412	38	1.8793040227889
9	19252	39	1.8954681876561
9	20086	40	2.2553467174174
9	20916	41	1.7429567241042
9	21754	42	2.0192482635441
9	22604	43	2.1827359052182
9	23476	44	2.0164367628106
9	24358	45	2.1348602115454
9	25256	46	2.0878872407227
9	26156	47	1.8595481324004
9	27056	48	2.2412969809596
9	27956	49	1.7859999952831
9	28856	50	2.3133115729256
9	29756	51	1.997448965971
9	30656	52	2.023898665023
9	31556	53	2.012729321146
9	32456	54	2.1193583924862
9	33356	55	1.9065956504161
9	34256	56	1.8305118457369
9	35156	57	2.2544630998412
9	36056	58	1.9497933768092
9	36956	59	2.199742909699
9	37856	60	1.9416842431598
9	38756	61	2.0340583936544
9	39656	62	1.8947902862501
9	40556	63	2.3236156337703
9	41462	64	1.8116807487081
9	42368	65	2.1067187558746
9	43274	66	2.1875465210812
9	44186	67	2.0405446651404
9	45098	68	1.6487905152147
9	46010	69	2.0126291187762
9	46920	70	2.0466796925005
9	47828	71	2.3433989621326
9	48730	72	2.0077208397811
9	49636	73	1.8802787050508
9	50544	74	1.3813602001042
9	51458	75	0.973
9	52372	76	0.973
9	53286	77	2.1858292180675
9	54206	78	6.1055800227359
9	55128	79	7.4203319282239
9	56056	80	9.0619781513922
9	56984	81	2.1980419911934
9	57920	82	2.1350370330868
9	58862	83	1.8399981216727
9	59804	84	2.173076148691
9	60746	85	2.1416790063363
9	61688	86	2.1305886227155
9	62630	87	1.8079694223127
9	63572	88	2.2132512754183
9	64514	89	1.9066500006632
9	65456	90	1.9695156486718
9	66404	91	2.2659008158816
9	67352	92	1.8936738738303
9	68306	93	2.0928664134049
9	69266	94	1.7349388279652
9	70226	95	2.2620386480536
9	71186	96	1.8617654496
9	72146	97	2.2450666168368
9	73106	98	2.0664636500357
9	74066	99	1.8555959788498
9	75026	100	2.0103075424714
9	75986	101	1.9787285081058
9	76946	102	2.0525335522103
9	77906	103	2.1973525038576
9	78866	104	1.9370722268292
9	79826	105	2.0556905942454
9	80786	106	2.1821450462765
9	81746	107	2.0145517254825
9	82706	108	1.8655326990929
9	83666	109	2.2485230680652
9	84626	110	1.8023122965109
9	85586	111	2.0753381771809
9	86546	112	2.1920751744672
9	87506	113	2.1266651564915
9	88466	114	1.6123326050947
9	89426	115	2.3285344097673
9	90386	116	1.8673794032311
9	91346	117	2.3297640116069
9	92306	118	1.668931806345
9	93266	119	2.3395686650256
9	94226	120	1.9938626073581
9	95186	121	2.1384996375601
9	96146	122	1.739535687843
9	97106	123	2.2193534434547
9	98066	124	2.0196153197822
9	99026	125	1.7471262671258
9	99987	126	2.0254237355418
9	100950	127	2.4210568977566
9	101913	128	1.7483926579407
9	102876	129	2.0580461683686
9	103839	130	2.0896811624883
9	104803	131	1.937911913979
9	105767	132	2.2912967597894
9	106731	133	1.8528600408083
9	107696	134	1.9330331343468
9	108663	135	2.0465755532814
9	109630	136	2.2659055273814
9	110597	137	1.7388900071776
9	111566	138	2.231711462374
9	112536	139	1.9850053294315
9	113506	140	1.9980235595548
9	114476	141	2.0975280706569
9	115447	142	1.813091621086
9	116418	143	2.2698294292933
9	117390	144	1.7770096234678
9	118362	145	2.3367194719381
9	119336	146	1.859703679116
9	120310	147	2.1330729430549
9	121284	148	2.1358660794021
9	122258	149	1.7570872917791
9	123232	150	2.2526062298388
9	124206	151	2.1288224415809
9	125180	152	1.9635057791053
9	126155	153	1.8895605130103
9	127131	154	2.2263741095757
9	128107	155	1.7778165840985
9	129084	156	2.0441469629576
9	130063	157	2.0593373562241
9	131043	158	2.152439819692
9	132015	159	1.8768796342455
9	132986	160	2.13064626363
9	133966	161	1.8486893278351
9	134942	162	2.0361644423435
9	135912	163	2.090897582556
9	136888	164	2.2814047873754
9	137862	165	2.0612404299833
10	541	7	2414.8848622198
10	705	8	2412.0691307599
10	870	9	2407.3819784434
10	1035	10	2402.4639103656
10	1268	11	2396.2016479742
10	1502	12	2388.5021761758
10	1736	13	2379.5347220144
10	2050	14	2369.7521497252
10	2365	15	2359.9648396304
10	2680	16	2350.1637192596
10	3087	17	2340.717056727
10	3495	18	2334.4889366638
10	3903	19	2338.0188398167
10	4415	20	2348.6970945761
10	4928	21	2359.0578910074
10	5441	22	2372.1753142256
10	6017	23	2385.9847009928
10	6647	24	2399.0560799135
10	7277	25	2411.469456295
10	8035	26	2420.8240344936
10	8794	27	2428.2511095385
10	9553	28	2431.5096723901
10	10452	29	2433.2168502312
10	11352	30	2435.2011956087
10	12252	31	2437.29147981
10	13150	32	2438.672857787
10	14042	33	2439.5458305131
10	14932	34	2440.5569901068
10	15816	35	2441.5662171456
10	16690	36	2442.5764760413
10	17558	37	2443.5864360537
10	18412	38	2444.5969193554
10	19252	39	2445.6077267987
10	20086	40	2446.6171177449
10	20916	41	2447.6285385494
10	21754	42	2448.6389437378
10	22604	43	2449.6489775468
10	23476	44	2450.659299592
10	24358	45	2449.5461587089
10	25256	46	2448.4337074455
10	26156	47	2447.3216178805
10	27056	48	2446.2090836745
10	27956	49	2445.0950721942
10	28856	50	2443.9810827244
10	29756	51	2442.8666489375
10	30656	52	2441.7540252554
10	31556	53	2440.6404707588
10	32456	54	2439.6774182728
10	33356	55	2438.7357344853
10	34256	56	2437.80345188
10	35156	57	2432.5887480786
10	36056	58	2422.0286549254
10	36956	59	2408.883953395
10	37856	60	2394.9496626364
10	38756	61	2381.0416588041
10	39656	62	2367.1330478616
10	40556	63	2353.2134967736
10	41462	64	2339.2585312347
10	42368	65	2325.3134851144
10	43274	66	2311.373704657
10	44186	67	2297.4518273935
10	45098	68	2283.5220887766
10	46010	69	2269.5990029584
10	46920	70	2255.6794412981
10	47828	71	2241.7916212609
10	48730	72	2227.9847337118
10	49636	73	2214.2791587367
10	50544	74	2201.0892337477
10	51458	75	2187.9007472144
10	52372	76	2175.0281305559
10	53286	77	2163.7922215099
10	54206	78	2153.0565030358
10	55128	79	2145.061295453
10	56056	80	2138.8865693749
10	56984	81	2132.2058783858
10	57920	82	2124.3530012374
10	58862	83	2115.1106863283
10	59804	84	2105.5772959209
10	60746	85	2096.0486951143
10	61688	86	2086.5201748085
10	62630	87	2076.9985564699
10	63572	88	2067.4773121658
10	64514	89	2057.9560193991
10	65456	90	2048.4301087412
10	66404	91	2038.4286990223
10	67352	92	2028.4460535374
10	68306	93	2018.4352137732
10	69266	94	2008.4365662953
10	70226	95	1998.4419406498
10	71186	96	1988.445482365
10	72146	97	1978.4631982136
10	73106	98	1968.4705190316
10	74066	99	1958.4729668465
10	75026	100	1948.496324059
10	75986	101	1938.5138597211
10	76946	102	1928.7633869092
10	77906	103	1919.0192268778
10	78866	104	1909.2883582463
10	79826	105	1899.5546581256
10	80786	106	1889.8253097575
10	81746	107	1880.107679372
10	82706	108	1870.3778274067
10	83666	109	1860.6455077478
10	84626	110	1850.9075494106
10	85586	111	1841.1636173625
10	86546	112	1831.2467422428
10	87506	113	1821.1408013285
10	88466	114	1811.0406093021
10	89426	115	1801.0543109482
10	90386	116	1791.108645563
10	91346	117	1781.1437887275
10	92306	118	1771.1911959221
10	93266	119	1761.2289436397
10	94226	120	1751.280250632
10	95186	121	1741.3355830509
10	96146	122	1731.3914085127
10	97106	123	1721.4581923692
10	98066	124	1711.5048394436
10	99026	125	1701.5476082002
10	99987	126	1691.6012876693
10	100950	127	1681.6455024484
10	101913	128	1671.6971478492
10	102876	129	1661.7493931765
10	103839	130	1651.7856737567
10	104803	131	1641.8379761598
10	105767	132	1631.8929215951
10	106731	133	1621.9398141404
10	107696	134	1612.1415352544
10	108663	135	1602.3321737479
10	109630	136	1592.5215907441
10	110597	137	1582.7039244213
10	111566	138	1572.8772124862
10	112536	139	1563.0583898814
10	113506	140	1552.7138095363
10	114476	141	1542.180303695
10	115447	142	1531.62551045
10	116418	143	1521.0740999584
10	117390	144	1510.5055308546
10	118362	145	1499.5636592456
10	119336	146	1488.1536594166
10	120310	147	1476.7605300121
10	121284	148	1465.3483826709
10	122258	149	1453.9519108806
10	123232	150	1441.9079547141
10	124206	151	1429.2713908447
10	125180	152	1416.6542596684
10	126155	153	1404.0236049807
10	127131	154	1390.8254609816
10	128107	155	1377.536569392
10	129084	156	1364.255733252
10	130063	157	1350.7095529382
10	131043	158	1336.9371743423
10	132015	159	1323.3124203472
10	132986	160	1309.5704503818
10	133966	161	1295.8364775144
10	134942	162	1282.0869437549
10	135912	163	1268.3100475566
10	136888	164	1254.4992435438
10	137862	165	1240.6385017174
11	541	7	1578.4476927174
11	705	8	1579.4816146148
11	870	9	1581.3305685576
11	1035	10	1586.311893981
11	1268	11	1592.6547030602
11	1502	12	1600.4532072712
11	1736	13	1609.5360029312
11	2050	14	1619.4444009606
11	2365	15	1629.3575977338
11	2680	16	1639.2847824143
11	3087	17	1649.4765304932
11	3495	18	1661.4854336744
11	3903	19	1673.8446300924
11	4415	20	1682.7957309801
11	4928	21	1692.1393567109
11	5441	22	1695.6439150097
11	6017	23	1697.4374776948
11	6647	24	1698.6863156371
11	7277	25	1699.860083269
11	8035	26	1700.7446211064
11	8794	27	1701.4003788568
11	9553	28	1709.757081449
11	10452	29	1720.9911797
11	11352	30	1734.0491812732
11	12252	31	1747.8043141738
11	13150	32	1761.6824669717
11	14042	33	1775.5982529195
11	14932	34	1789.5036912933
11	15816	35	1803.3825532272
11	16690	36	1817.2756052278
11	17558	37	1831.1645469936
11	18412	38	1845.0606850199
11	19252	39	1858.9612806309
11	20086	40	1872.8423966132
11	20916	41	1886.7514271513
11	21754	42	1900.646490965
11	22604	43	1914.536447579
11	23476	44	1928.4487420022
11	24358	45	1942.3421864314
11	25256	46	1956.2270235084
11	26156	47	1970.1073461203
11	27056	48	1983.9932184294
11	27956	49	1997.8975290405
11	28856	50	2011.8015649328
11	29756	51	2025.7111464804
11	30656	52	2039.5981355663
11	31556	53	2053.4967424283
11	32456	54	2067.4034190346
11	33356	55	2081.3165382929
11	34256	56	2095.191705036
11	35156	57	2107.8789094472
11	36056	58	2116.6337398505
11	36956	59	2120.9562854283
11	37856	60	2120.4856428197
11	38756	61	2120.0158880753
11	39656	62	2119.5461128242
11	40556	63	2119.0759680606
11	41462	64	2118.6046271436
11	42368	65	2118.1336212633
11	43274	66	2117.6627932359
11	44186	67	2117.1925699031
11	45098	68	2116.7220810475
11	46010	69	2116.2518168949
11	46920	70	2115.7816717746
11	47828	71	2114.7131970106
11	48730	72	2112.7552736411
11	49636	73	2110.4661961645
11	50544	74	2105.9927877421
11	51458	75	2101.5198671771
11	52372	76	2096.3551100139
11	53286	77	2089.7407077681
11	54206	78	2083.4207598139
11	55128	79	2078.7141073495
11	56056	80	2074.7972606206
11	56984	81	2068.0251442045
11	57920	82	2059.6421890724
11	58862	83	2049.7760075787
11	59804	84	2039.5991026647
11	60746	85	2029.4273106549
11	61688	86	2019.2556045791
11	62630	87	2009.091266362
11	63572	88	1998.9273274271
11	64514	89	1988.7633367572
11	65456	90	1978.5944164842
11	66404	91	1968.8377017137
11	67352	92	1959.1335827988
11	68306	93	1949.4020562554
11	69266	94	1939.6823818209
11	70226	95	1929.9666170049
11	71186	96	1920.2490706826
11	72146	97	1910.5453030197
11	73106	98	1900.8314303588
11	74066	99	1891.112820657
11	75026	100	1881.4145369586
11	75986	101	1871.7105941363
11	76946	102	1861.762787872
11	77906	103	1851.7775551034
11	78866	104	1841.805942568
11	79826	105	1831.8314284906
11	80786	106	1821.8613738287
11	81746	107	1811.9033270562
11	82706	108	1801.9327563383
11	83666	109	1791.9596568765
11	84626	110	1781.9807792334
11	85586	111	1771.995780088
11	86546	112	1762.2372774109
11	87506	113	1752.639209711
11	88466	114	1743.0466019884
11	89426	115	1733.3165230826
11	90386	116	1723.5696464377
11	91346	117	1713.8039619308
11	92306	118	1704.050296328
11	93266	119	1694.2871643156
11	94226	120	1684.5373205626
11	95186	121	1674.7914217785
11	96146	122	1665.0460061822
11	97106	123	1655.3113299506
11	98066	124	1645.5569194192
11	99026	125	1635.7987080887
11	99987	126	1626.0511893928
11	100950	127	1616.2943951823
11	101913	128	1606.5448830742
11	102876	129	1596.7959589018
11	103839	130	1587.0313890763
11	104803	131	1577.282520839
11	105767	132	1567.5362428054
11	106731	133	1557.7820728393
11	107696	134	1548.0303102722
11	108663	135	1538.1282132054
11	109630	136	1528.2248830935
11	110597	137	1518.3144026985
11	111566	138	1508.3947911765
11	112536	139	1498.483143568
11	113506	140	1489.1568036964
11	114476	141	1480.0452644909
11	115447	142	1470.9153115675
11	116418	143	1461.7882847441
11	117390	144	1452.6464156285
11	118362	145	1443.9985022796
11	119336	146	1435.9576372057
11	120310	147	1427.9286610717
11	121284	148	1419.8862826005
11	122258	149	1411.8549510175
11	123232	150	1404.9341250546
11	124206	151	1398.9764945079
11	125180	152	1393.0280256914
11	126155	153	1387.0731810853
11	127131	154	1382.5615172284
11	128107	155	1378.2741225408
11	129084	156	1373.9893267835
11	130063	157	1370.9614194985
11	131043	158	1368.8342411127
11	132015	159	1366.4432029203
11	132986	160	1364.1046821186
11	133966	161	1361.688714534
11	134942	162	1359.3253340675
11	135912	163	1357.2471096255
11	136888	164	1355.4257018631
11	137862	165	1353.9639610993
12	705	8	3.930963162637
12	870	9	5.9263112237273
12	1035	10	7.8381960794392
12	1268	11	9.790430662247
12	1502	12	11.728100012452
12	1736	13	13.629514704516
12	2050	14	13.941568216505
12	2365	15	13.881279769889
12	2680	16	13.897868440901
12	3087	17	13.925429278756
12	3495	18	13.988464023101
12	3903	19	13.968606978769
12	4415	20	13.918509052745
12	4928	21	13.924308654484
12	5441	22	13.951645852409
12	6017	23	13.87926841794
12	6647	24	12.793519969494
12	7277	25	11.84351296104
12	8035	26	7.4038563960913
12	8794	27	8.4727548549238
12	9553	28	10.367830629347
12	10452	29	12.18869854925
12	11352	30	13.961659159465
12	12252	31	13.954832898835
12	13150	32	13.985199820679
12	14042	33	13.894128147855
12	14932	34	13.93747920732
12	15816	35	13.922516686122
12	16690	36	13.936551663636
12	17558	37	13.899921349036
12	18412	38	13.905686459227
12	19252	39	13.974518650502
12	20086	40	13.926188751743
12	20916	41	13.91506882193
12	21754	42	13.902084701743
12	22604	43	13.906688486487
12	23476	44	13.974945872892
12	24358	45	13.897515056985
12	25256	46	13.921723058985
12	26156	47	13.924442841869
12	27056	48	13.951647450316
12	27956	49	13.937102168764
12	28856	50	13.992623302951
12	29756	51	13.980002226101
12	30656	52	13.916035339397
12	31556	53	13.963387539031
12	32456	54	13.953238540422
12	33356	55	13.909820442609
12	34256	56	13.950985880545
12	35156	57	13.943263569523
12	36056	58	13.891897078918
12	36956	59	13.874182712052
12	37856	60	13.982985400616
12	38756	61	13.927164004399
12	39656	62	13.899862960158
12	40556	63	13.960168966714
12	41462	64	13.961850514959
12	42368	65	13.962242161995
12	43274	66	13.957377178506
12	44186	67	13.932528918332
12	45098	68	13.977439161665
12	46010	69	13.873707558191
12	46920	70	13.945779315263
12	47828	71	13.942668949808
12	48730	72	13.91575948562
12	49636	73	13.907857767178
12	50544	74	13.905387963485
12	51458	75	13.882030064231
12	52372	76	13.892308738509
12	53286	77	12.693818917724
12	54206	78	11.70251151318
12	55128	79	7.2582895366271
12	56056	80	8.3600519900588
12	56984	81	10.344567940864
12	57920	82	12.492385599693
12	58862	83	13.903105560713
12	59804	84	13.976248143204
12	60746	85	13.914592284339
12	61688	86	13.97838243901
12	62630	87	13.891843429431
12	63572	88	13.942782553693
12	64514	89	13.92527937796
12	65456	90	13.946098088557
12	66404	91	13.982521570069
12	67352	92	13.958346453356
12	68306	93	13.987895995232
12	69266	94	13.977045242079
12	70226	95	13.958020239889
12	71186	96	13.916281378635
12	72146	97	13.898014712506
12	73106	98	13.879000762429
12	74066	99	13.880664357552
12	75026	100	13.903560437779
12	75986	101	13.890714112679
12	76946	102	13.945821245471
12	77906	103	13.990805974286
12	78866	104	13.945199944528
12	79826	105	13.883193631326
12	80786	106	13.952838162465
12	81746	107	13.924985157237
12	82706	108	13.874930824707
12	83666	109	13.945576878297
12	84626	110	13.926983077859
12	85586	111	13.899910735688
12	86546	112	13.981109991898
12	87506	113	13.87017661765
12	88466	114	13.949733157742
12	89426	115	13.917494760838
12	90386	116	13.884873393064
12	91346	117	13.926440640239
12	92306	118	13.897931559696
12	93266	119	13.985184705968
12	94226	120	13.994963830572
12	95186	121	13.954670474175
12	96146	122	13.880701801197
12	97106	123	13.882463010871
12	98066	124	13.960814682872
12	99026	125	13.895311413263
12	99987	126	13.905946731863
12	100950	127	13.957297545681
12	101913	128	13.989438035798
12	102876	129	13.927766914968
12	103839	130	13.89476804693
12	104803	131	13.956484966669
12	105767	132	13.962260547797
12	106731	133	13.950011306256
12	107696	134	13.978033158435
12	108663	135	13.870789043959
12	109630	136	13.969389840765
12	110597	137	13.924807656489
12	111566	138	13.942096447786
12	112536	139	13.933840963931
12	113506	140	13.933469208681
12	114476	141	13.907491463344
12	115447	142	13.987764618078
12	116418	143	13.874472264664
12	117390	144	13.976509501764
12	118362	145	13.877210935315
12	119336	146	13.928855078614
12	120310	147	13.921141652032
12	121284	148	13.883432441691
12	122258	149	13.903065249571
12	123232	150	13.922095646847
12	124206	151	13.91592263889
12	125180	152	13.985627721555
12	126155	153	13.889046199736
12	127131	154	13.893844385901
12	128107	155	13.871081850592
12	129084	156	13.936109915006
12	130063	157	13.927690187052
12	131043	158	13.97659744984
12	132015	159	13.978084847827
12	132986	160	13.917298589768
12	133966	161	13.999319073218
12	134942	162	13.944574527382
12	135912	163	13.895725954215
12	136888	164	13.958416926514
12	137862	165	13.904538255495
13	870	9	1.9953480610903
13	1035	10	1.9118848557118
13	1268	11	1.9522345828079
13	1502	12	1.9376693502045
13	1736	13	1.9014146920643
13	2050	14	0.31205351198868
13	2365	15	-0.060288446615449
13	2680	16	0.016588671011849
13	3087	17	0.027560837855562
13	3495	18	0.063034744344186
13	3903	19	-0.019857044331729
13	4415	20	-0.050097926023881
13	4928	21	0.0057996017392714
13	5441	22	0.027337197924499
13	6017	23	-0.072377434468363
13	6647	24	-1.0857484484466
13	7277	25	-0.95000700845353
13	8035	26	-4.439656564949
13	8794	27	1.0688984588324
13	9553	28	1.8950757744233
13	10452	29	1.8208679199032
13	11352	30	1.7729606102145
13	12252	31	-0.0068262606300422
13	13150	32	0.03036692184396
13	14042	33	-0.091071672823745
13	14932	34	0.043351059465204
13	15816	35	-0.01496252119774
13	16690	36	0.014034977513365
13	17558	37	-0.036630314600188
13	18412	38	0.0057651101914225
13	19252	39	0.068832191275433
13	20086	40	-0.048329898759256
13	20916	41	-0.01111992981285
13	21754	42	-0.012984120186884
13	22604	43	0.0046037847432316
13	23476	44	0.068257386405021
13	24358	45	-0.077430815906265
13	25256	46	0.02420800199965
13	26156	47	0.0027197828842329
13	27056	48	0.027204608446919
13	27956	49	-0.01454528155271
13	28856	50	0.055521134187002
13	29756	51	-0.012621076849754
13	30656	52	-0.063966886703856
13	31556	53	0.047352199633606
13	32456	54	-0.010148998608347
13	33356	55	-0.043418097812683
13	34256	56	0.041165437935852
13	35156	57	-0.007722311022226
13	36056	58	-0.051366490605288
13	36956	59	-0.017714366866276
13	37856	60	0.10880268856417
13	38756	61	-0.055821396217215
13	39656	62	-0.027301044240593
13	40556	63	0.06030600655591
13	41462	64	0.0016815482452515
13	42368	65	0.00039164703572148
13	43274	66	-0.0048649834888046
13	44186	67	-0.024848260174041
13	45098	68	0.044910243332852
13	46010	69	-0.10373160347343
13	46920	70	0.072071757072118
13	47828	71	-0.0031103654555054
13	48730	72	-0.02690946418792
13	49636	73	-0.0079017184418628
13	50544	74	-0.0024698036932378
13	51458	75	-0.023357899254188
13	52372	76	0.010278674277943
13	53286	77	-1.1984898207845
13	54206	78	-0.99130740454447
13	55128	79	-4.4442219765527
13	56056	80	1.1017624534317
13	56984	81	1.9845159508055
13	57920	82	2.1478176588286
13	58862	83	1.4107199610206
13	59804	84	0.073142582490108
13	60746	85	-0.06165585886454
13	61688	86	0.063790154671295
13	62630	87	-0.086539009578992
13	63572	88	0.050939124261495
13	64514	89	-0.017503175733145
13	65456	90	0.020818710597233
13	66404	91	0.036423481511882
13	67352	92	-0.024175116713158
13	68306	93	0.029549541876186
13	69266	94	-0.010850753153209
13	70226	95	-0.019025002189446
13	71186	96	-0.041738861254418
13	72146	97	-0.018266666128765
13	73106	98	-0.019013950077351
13	74066	99	0.0016635951236825
13	75026	100	0.022896080226637
13	75986	101	-0.0128463251004
13	76946	102	0.055107132792473
13	77906	103	0.044984728815033
13	78866	104	-0.045606029757764
13	79826	105	-0.062006313202437
13	80786	106	0.069644531139637
13	81746	107	-0.027853005228097
13	82706	108	-0.050054332530127
13	83666	109	0.070646053589881
13	84626	110	-0.018593800438103
13	85586	111	-0.027072342170868
13	86546	112	0.081199256209658
13	87506	113	-0.11093337424798
13	88466	114	0.079556540092453
13	89426	115	-0.032238396904431
13	90386	116	-0.032621367773974
13	91346	117	0.041567247174681
13	92306	118	-0.028509080542717
13	93266	119	0.087253146271687
13	94226	120	0.0097791246045382
13	95186	121	-0.040293356396724
13	96146	122	-0.073968672978227
13	97106	123	0.001761209673715
13	98066	124	0.078351672000716
13	99026	125	-0.065503269608598
13	99987	126	0.010635318600107
13	100950	127	0.051350813817699
13	101913	128	0.032140490117017
13	102876	129	-0.061671120829415
13	103839	130	-0.032998868038412
13	104803	131	0.061716919739265
13	105767	132	0.0057755811279634
13	106731	133	-0.01224924154114
13	107696	134	0.028021852178499
13	108663	135	-0.10724411447532
13	109630	136	0.098600796805696
13	110597	137	-0.044582184276079
13	111566	138	0.017288791297469
13	112536	139	-0.0082554838550273
13	113506	140	-0.00037175524979816
13	114476	141	-0.025977745337878
13	115447	142	0.080273154734169
13	116418	143	-0.113292353414
13	117390	144	0.1020372371003
13	118362	145	-0.099298566449432
13	119336	146	0.0516441432992
13	120310	147	-0.0077134265820504
13	121284	148	-0.037709210340399
13	122258	149	0.019632807879242
13	123232	150	0.019030397275928
13	124206	151	-0.0061730079562405
13	125180	152	0.069705082664733
13	126155	153	-0.09658152181888
13	127131	154	0.0047981861652815
13	128107	155	-0.022762535309885
13	129084	156	0.065028064413928
13	130063	157	-0.0084197279531519
13	131043	158	0.048907262787688
13	132015	159	0.0014873979869297
13	132986	160	-0.060786258059087
13	133966	161	0.082020483450032
13	134942	162	-0.054744545836002
13	135912	163	-0.048848573167342
13	136888	164	0.062690972299315
13	137862	165	-0.053878671019337
14	870	9	4.2649508166984
14	1035	10	5.1441608835298
14	1268	11	6.2752675611406
14	1502	12	7.3015557220543
14	1736	13	8.2469806235914
14	2050	14	3.0813423760871
14	2365	15	1.825038103975
14	2680	16	2.0839753981971
14	3087	17	2.1237162576214
14	3495	18	2.2501690272635
14	3903	19	1.9687844028223
14	4415	20	1.8624692368163
14	4928	21	2.0505690853877
14	5441	22	2.1258147014109
14	6017	23	1.7844264067381
14	6647	24	0.973
14	7277	25	0.973
14	8035	26	0.973
14	8794	27	3.7575341079103
14	9553	28	6.4482222684255
14	10452	29	7.2140195323343
14	11352	30	8.0005078452345
14	12252	31	2.0112657729674
14	13150	32	2.1396802881933
14	14042	33	1.7230808185304
14	14932	34	2.1780640158967
14	15816	35	1.980720158986
14	16690	36	2.0794954629949
14	17558	37	1.9059152732614
14	18412	38	2.0485298427513
14	19252	39	2.2680539427787
14	20086	40	1.8690933945628
14	20916	41	1.9928741031296
14	21754	42	1.9853406570184
14	22604	43	2.0447410785649
14	23476	44	2.2661688405632
14	24358	45	1.7690384486571
14	25256	46	2.1120645090544
14	26156	47	2.0402477289559
14	27056	48	2.1253690633824
14	27956	49	1.9835569511815
14	28856	50	2.225320914914
14	29756	51	1.9942755638066
14	30656	52	1.8157337575186
14	31556	53	2.1944464182681
14	32456	54	1.9999319758662
14	33356	55	1.8840813816426
14	34256	56	2.1722360533798
14	35156	57	2.007091813677
14	36056	58	1.8558336695686
14	36956	59	1.9667740746073
14	37856	60	2.4037578966905
14	38756	61	1.844036691971
14	39656	62	1.9371616602798
14	40556	63	2.2376623461065
14	41462	64	2.0405988072341
14	42368	65	2.0362986285583
14	43274	66	2.0181188628954
14	44186	67	1.9485115452067
14	45098	68	2.1878187851485
14	46010	69	1.6791237400594
14	46920	70	2.2755265645048
14	47828	71	2.0225291815531
14	48730	72	1.9399893034582
14	49636	73	2.0029455902709
14	50544	74	2.0209022016766
14	51458	75	1.9486571691946
14	52372	76	2.0622613222014
14	53286	77	0.973
14	54206	78	0.973
14	55128	79	0.973
14	56056	80	3.787065500367
14	56984	81	6.6587622729478
14	57920	82	8.3590899592611
14	58862	83	6.7557732506068
14	59804	84	2.2827782635825
14	60746	85	1.8233587905952
14	61688	86	2.25152803409
14	62630	87	1.7380735948178
14	63572	88	2.2041583651104
14	64514	89	1.972465490943
14	65456	90	2.1033026776553
14	66404	91	2.1597956649787
14	67352	92	1.9532582730095
14	68306	93	2.1372207993622
14	69266	94	1.9999450642856
14	70226	95	1.9705512052998
14	71186	96	1.890303919516
14	72146	97	1.9672456517893
14	73106	98	1.9628961485411
14	74066	99	2.0322289506122
14	75026	100	2.1057121508415
14	75986	101	1.9846804824054
14	76946	102	2.2185144416472
14	77906	103	2.1895838461943
14	78866	104	1.8799666220837
14	79826	105	1.8194571148731
14	80786	106	2.2682084744209
14	81746	107	1.9377035130735
14	82706	108	1.858706617815
14	83666	109	2.2707107477349
14	84626	110	1.9689714837247
14	85586	111	1.9379323328995
14	86546	112	2.3105083258546
14	87506	113	1.6547799252153
14	88466	114	2.3011621262527
14	89426	115	1.9222810385351
14	90386	116	1.9179322878231
14	91346	117	2.170835441665
14	92306	118	1.9329315971303
14	93266	119	2.331409638926
14	94226	120	2.0713141390424
14	95186	121	1.8986970663904
14	96146	122	1.7792239919013
14	97106	123	2.0327390798027
14	98066	124	2.2984534150184
14	99026	125	1.8087979420436
14	99987	126	2.0648783989845
14	100950	127	2.2072043824945
14	101913	128	2.1461250594357
14	102876	129	1.8244549385217
14	103839	130	1.9175967436881
14	104803	131	2.2419777914259
14	105767	132	2.0544169361677
14	106731	133	1.9925491800844
14	107696	134	2.130994006777
14	108663	135	1.667158428581
14	109630	136	2.3676636444222
14	110597	137	1.8815455087492
14	111566	138	2.0910132406566
14	112536	139	2.0043570379106
14	113506	140	2.030793134949
14	114476	141	1.9423234639898
14	115447	142	2.308198301982
14	116418	143	1.6472135697639
14	117390	144	2.3801366133394
14	118362	145	1.694217973218
14	119336	146	2.2049325684069
14	120310	147	2.0049056044412
14	121284	148	1.9007736748242
14	122258	149	2.0947249560626
14	123232	150	2.0947326407169
14	124206	151	2.0095494998466
14	125180	152	2.2723179546103
14	126155	153	1.7042325209299
14	127131	154	2.0440703942916
14	128107	155	1.9495966655145
14	129084	156	2.2507143899773
14	130063	157	2.0031904580905
14	131043	158	2.2011869004273
14	132015	159	2.0416125429052
14	132986	160	1.8265110740064
14	133966	161	2.3155014648219
14	134942	162	1.8491983358352
14	135912	163	1.864607990479
14	136888	164	2.2454807213523
14	137862	165	1.8485453953928
15	1035	10	2414.8652957816
15	1268	11	2411.9402292009
15	1502	12	2407.1594214574
15	1736	13	2402.0350675649
15	2050	14	2395.5354035812
15	2365	15	2387.5598131203
15	2680	16	2378.2983909701
15	3087	17	2368.4972038758
15	3495	18	2358.719633554
15	3903	19	2348.9248444787
15	4415	20	2339.614370346
15	4928	21	2334.1997176057
15	5441	22	2339.4193692133
15	6017	23	2350.023330241
15	6647	24	2360.3662725991
15	7277	25	2373.90233667
15	8035	26	2387.7152259793
15	8794	27	2400.5914429313
15	9553	28	2412.9398871803
15	10452	29	2421.7139854309
15	11352	30	2429.0882121673
15	12252	31	2431.6639768599
15	13150	32	2433.4302155024
15	14042	33	2435.4611475593
15	14932	34	2437.5533698815
15	15816	35	2438.7684759141
15	16690	36	2439.671540139
15	17558	37	2440.6813741141
15	18412	38	2441.6917844916
15	19252	39	2442.7022041357
15	20086	40	2443.7124593587
15	20916	41	2444.7229332504
15	21754	42	2445.7337078364
15	22604	43	2446.7459111849
15	23476	44	2447.757486716
15	24358	45	2448.7683903823
15	25256	46	2449.7777371067
15	26156	47	2450.5174418977
15	27056	48	2449.4043721958
15	27956	49	2448.2901189056
15	28856	50	2447.1791712336
15	29756	51	2446.0671284799
15	30656	52	2444.9540997728
15	31556	53	2443.8428649582
15	32456	54	2442.7302661942
15	33356	55	2441.6178158567
15	34256	56	2440.504344981
15	35156	57	2439.5625337544
15	36056	58	2438.6532861682
15	36956	59	2437.4924632915
15	37856	60	2431.5253197888
15	38756	61	2420.4597851568
15	39656	62	2407.1638624117
15	40556	63	2393.2526295835
15	41462	64	2379.3212041334
15	42368	65	2365.4002358754
15	43274	66	2351.463331432
15	44186	67	2337.5140063948
15	45098	68	2323.5957947921
15	46010	69	2309.6545588505
15	46920	70	2295.7284094128
15	47828	71	2281.7997208149
15	48730	72	2267.8834083249
15	49636	73	2253.946211515
15	50544	74	2240.0999867807
15	51458	75	2226.3174067095
15	52372	76	2212.6677349888
15	53286	77	2199.4635333541
15	54206	78	2186.2508665784
15	55128	79	2173.5280319829
15	56056	80	2162.4613725162
15	56984	81	2151.844455778
15	57920	82	2144.3328734455
15	58862	83	2138.2104082213
15	59804	84	2131.7250933199
15	60746	85	2123.9750322183
15	61688	86	2114.9633325475
15	62630	87	2105.4428866992
15	63572	88	2095.9163508184
15	64514	89	2086.3884385502
15	65456	90	2076.8674617022
15	66404	91	2067.3371127266
15	67352	92	2057.8054056258
15	68306	93	2048.2754227815
15	69266	94	2038.2826067355
15	70226	95	2028.2975240292
15	71186	96	2018.2838294638
15	72146	97	2008.2861049057
15	73106	98	1998.2820457038
15	74066	99	1988.2799179761
15	75026	100	1978.3094720576
15	75986	101	1968.313837465
15	76946	102	1958.3297584845
15	77906	103	1948.3443500933
15	78866	104	1938.3523860328
15	79826	105	1928.6028632446
15	80786	106	1918.8668773338
15	81746	107	1909.1403872814
15	82706	108	1899.4257999571
15	83666	109	1889.6904199595
15	84626	110	1879.9536026671
15	85586	111	1870.2251238648
15	86546	112	1860.4892145498
15	87506	113	1850.7467723147
15	88466	114	1841.0060529265
15	89426	115	1831.0729336436
15	90386	116	1820.9746943722
15	91346	117	1810.8698990619
15	92306	118	1800.8957081698
15	93266	119	1790.9424212483
15	94226	120	1780.9912443729
15	95186	121	1771.0371249806
15	96146	122	1761.0836576653
15	97106	123	1751.1351577155
15	98066	124	1741.1920192128
15	99026	125	1731.2211997178
15	99987	126	1721.2652054429
15	100950	127	1711.3077406638
15	101913	128	1701.3438671168
15	102876	129	1691.3841930741
15	103839	130	1681.4324589712
15	104803	131	1671.4750476466
15	105767	132	1661.5080182628
15	106731	133	1651.5673042787
15	107696	134	1641.6091249736
15	108663	135	1631.6498104602
15	109630	136	1621.6965435237
15	110597	137	1611.9080242057
15	111566	138	1602.0828716158
15	112536	139	1592.262825614
15	113506	140	1582.4306791554
15	114476	141	1572.6101683567
15	115447	142	1562.7925248435
15	116418	143	1552.414603829
15	117390	144	1541.8602510728
15	118362	145	1531.312206396
15	119336	146	1520.7444612107
15	120310	147	1510.1936092473
15	121284	148	1499.2407075554
15	122258	149	1487.8336447154
15	123232	150	1476.4257944914
15	124206	151	1465.0121233214
15	125180	152	1453.6072025006
15	126155	153	1441.506189018
15	127131	154	1428.8782716403
15	128107	155	1416.245269782
15	129084	156	1403.6143821445
15	130063	157	1390.390699256
15	131043	158	1377.0917296543
15	132015	159	1363.7941096912
15	132986	160	1350.2422731979
15	133966	161	1336.4751129521
15	134942	162	1322.8470846979
15	135912	163	1309.1091821106
15	136888	164	1295.3728378788
15	137862	165	1281.6381444852
16	1035	10	1578.4548774119
16	1268	11	1579.5289465943
16	1502	12	1581.5559881236
16	1736	13	1586.7462526578
16	2050	14	1593.3295168448
16	2365	15	1601.4076912217
16	2680	16	1610.7882359559
16	3087	17	1620.7154882178
16	3495	18	1630.6188199436
16	3903	19	1640.5395918936
16	4415	20	1650.8881406859
16	4928	21	1663.2272230769
16	5441	22	1674.9756418047
16	6017	23	1683.991763521
16	6647	24	1693.3192880014
16	7277	25	1695.9020503219
16	8035	26	1697.6139621651
16	8794	27	1698.8314944636
16	9553	28	1699.9991223291
16	10452	29	1700.8287719106
16	11352	30	1701.8119543158
16	12252	31	1710.77248332
16	13150	32	1722.3952316754
16	14042	33	1735.7597972872
16	14932	34	1749.5276840087
16	15816	35	1763.4065813264
16	16690	36	1777.3270081691
16	17558	37	1791.2142166747
16	18412	38	1805.1093518483
16	19252	39	1819.0046144547
16	20086	40	1832.8976159496
16	20916	41	1846.7936245678
16	21754	42	1860.6937683271
16	22604	43	1874.6135603888
16	23476	44	1888.5247187214
16	24358	45	1902.4266375881
16	25256	46	1916.3071454344
16	26156	47	1930.2193103312
16	27056	48	1944.1118663242
16	27956	49	1958.0191950379
16	28856	50	1971.8852653429
16	29756	51	1985.7650036877
16	30656	52	1999.6570480121
16	31556	53	2013.5267022299
16	32456	54	2027.4133803062
16	33356	55	2041.2982058274
16	34256	56	2055.1957689924
16	35156	57	2069.1008062335
16	36056	58	2082.9975140039
16	36956	59	2096.8399445554
16	37856	60	2109.2079723384
16	38756	61	2117.3350416897
16	39656	62	2120.8981878823
16	40556	63	2120.4283240745
16	41462	64	2119.9577782443
16	42368	65	2119.4875856144
16	43274	66	2119.0168547267
16	44186	67	2118.5457043229
16	45098	68	2118.0756048011
16	46010	69	2117.6047276128
16	46920	70	2117.1343599847
16	47828	71	2116.6639065938
16	48730	72	2116.1938712168
16	49636	73	2115.7231304534
16	50544	74	2114.473310166
16	51458	75	2112.5188337844
16	52372	76	2109.9196762582
16	53286	77	2105.4414258627
16	54206	78	2100.9603044856
16	55128	79	2095.4720256701
16	56056	80	2088.9572579786
16	56984	81	2082.7072467301
16	57920	82	2078.2852968154
16	58862	83	2074.2573408931
16	59804	84	2067.5119056096
16	60746	85	2059.2387067229
[...]
44	132986	160	2.0751264122319
44	133966	161	1.9913359905234
44	134942	162	2.3599919614138
44	135912	163	1.7301285828055
44	136888	164	2.1895514427455
44	137862	165	2.2086001943389
45	9553	28	2414.8739556831
45	10452	29	2411.9824938183
45	11352	30	2407.2767486298
45	12252	31	2402.3125217961
45	13150	32	2396.0491469132
45	14042	33	2388.363236953
45	14932	34	2379.3889066667
45	15816	35	2369.60855351
45	16690	36	2359.8217250713
45	17558	37	2350.0339326989
45	18412	38	2340.5866208127
45	19252	39	2334.4542237826
45	20086	40	2337.9471201416
45	20916	41	2347.8931071681
45	21754	42	2357.1130979927
45	22604	43	2367.6162937098
45	23476	44	2379.1316588795
45	24358	45	2389.8355921305
45	25256	46	2399.2246439116
45	26156	47	2408.1381714911
45	27056	48	2416.4444600061
45	27956	49	2423.8933225094
45	28856	50	2430.5822058077
45	29756	51	2432.1144314825
45	30656	52	2433.9120987519
45	31556	53	2435.9681930037
45	32456	54	2437.9709340835
45	33356	55	2438.9556714941
45	34256	56	2439.9148230213
45	35156	57	2440.9261024446
45	36056	58	2441.9372555213
45	36956	59	2442.9372564886
45	37856	60	2443.921607014
45	38756	61	2444.8919163515
45	39656	62	2445.8488305311
45	40556	63	2446.7997323368
45	41462	64	2447.7445581403
45	42368	65	2448.6819384597
45	43274	66	2449.6151043138
45	44186	67	2450.547849146
45	45098	68	2449.7599411862
45	46010	69	2448.7384649587
45	46920	70	2447.7191948885
45	47828	71	2446.7046391842
45	48730	72	2445.6888034871
45	49636	73	2444.6722988427
45	50544	74	2443.6564320571
45	51458	75	2442.6422059841
45	52372	76	2441.6279980309
45	53286	77	2440.6088125417
45	54206	78	2439.6850090694
45	55128	79	2438.7681119242
45	56056	80	2437.949227646
45	56984	81	2433.1068910905
45	57920	82	2423.0791883772
45	58862	83	2410.175442526
45	59804	84	2396.389951422
45	60746	85	2382.5637625272
45	61688	86	2368.7184322741
45	62630	87	2354.8413067779
45	63572	88	2340.961107029
45	64514	89	2327.0832681857
45	65456	90	2313.2111839461
45	66404	91	2299.3086113558
45	67352	92	2285.403759546
45	68306	93	2271.525894838
45	69266	94	2257.6348745686
45	70226	95	2243.7748385781
45	71186	96	2229.9823039089
45	72146	97	2216.2029431406
45	73106	98	2203.0053243452
45	74066	99	2189.8104592696
45	75026	100	2178.0591212573
45	75986	101	2169.3079101415
45	76946	102	2160.8729774964
45	77906	103	2153.6535567823
45	78866	104	2146.2345652329
45	79826	105	2140.1330240002
45	80786	106	2133.7468611357
45	81746	107	2126.3304656461
45	82706	108	2117.5448343755
45	83666	109	2108.0118516813
45	84626	110	2098.4787743107
45	85586	111	2088.9551111126
45	86546	112	2079.4345002569
45	87506	113	2069.9109766403
45	88466	114	2060.3839376441
45	89426	115	2050.8526187859
45	90386	116	2040.9879609642
45	91346	117	2030.9989539194
45	92306	118	2021.0179629279
45	93266	119	2011.0277351444
45	94226	120	2001.0334941079
45	95186	121	1991.0255364724
45	96146	122	1981.0374174196
45	97106	123	1971.0357196054
45	98066	124	1961.0446195218
45	99026	125	1951.0445645407
45	99987	126	1941.0593269494
45	100950	127	1931.2278115094
45	101913	128	1921.4827007448
45	102876	129	1911.7579281782
45	103839	130	1902.0186708949
45	104803	131	1892.2817508534
45	105767	132	1882.558372453
45	106731	133	1872.8218453104
45	107696	134	1863.0976198472
45	108663	135	1853.3717628908
45	109630	136	1843.6274498558
45	110597	137	1833.8055680505
45	111566	138	1823.7057792406
45	112536	139	1813.6072754028
45	113506	140	1803.5921464694
45	114476	141	1793.6343924578
45	115447	142	1783.672481006
45	116418	143	1773.7242625223
45	117390	144	1763.7671652583
45	118362	145	1753.8147620606
45	119336	146	1743.859719654
45	120310	147	1733.9176049784
45	121284	148	1723.9593571388
45	122258	149	1714.0130131625
45	123232	150	1704.0540401544
45	124206	151	1694.0971088086
45	125180	152	1684.1542574686
45	126155	153	1674.1956639378
45	127131	154	1664.2301514128
45	128107	155	1654.2712670863
45	129084	156	1644.3116836167
45	130063	157	1634.3570862409
45	131043	158	1624.3981344628
45	132015	159	1614.5769263363
45	132986	160	1604.7525851027
45	133966	161	1594.9233882558
45	134942	162	1585.0944295226
45	135912	163	1575.2764626287
45	136888	164	1565.4537820442
45	137862	165	1555.266449137
46	9553	28	1578.4516975414
46	10452	29	1579.5134272473
46	11352	30	1581.4371518614
46	12252	31	1586.465229745
46	13150	32	1592.8091656249
46	14042	33	1600.5939335627
46	14932	34	1609.6836937908
46	15816	35	1619.5898441439
46	16690	36	1629.5025530662
46	17558	37	1639.4162383201
46	18412	38	1649.6435087658
46	19252	39	1661.6944881156
46	20086	40	1673.7867121417
46	20916	41	1682.0706749978
46	21754	42	1690.3854936585
46	22604	43	1694.962485427
46	23476	44	1696.6218127469
46	24358	45	1697.8144569434
46	25256	46	1698.7022544891
46	26156	47	1699.5450880453
46	27056	48	1700.3305030931
46	27956	49	1700.970949633
46	28856	50	1703.8982709404
46	29756	51	1713.7367037814
46	30656	52	1725.5662684822
46	31556	53	1739.0964141311
46	32456	54	1752.8820277406
46	33356	55	1766.7819516268
46	34256	56	1780.672627544
46	35156	57	1794.5797138121
46	36056	58	1808.4850625638
46	36956	59	1822.2370478194
46	37856	60	1835.7738086395
46	38756	61	1849.1174754351
46	39656	62	1862.276932396
46	40556	63	1875.3537073582
46	41462	64	1888.3469253108
46	42368	65	1901.2377531743
46	43274	66	1914.0706238281
46	44186	67	1926.8977045994
46	45098	68	1939.6739033656
46	46010	69	1952.4232537979
46	46920	70	1965.1450685225
46	47828	71	1977.8080418361
46	48730	72	1990.4869911224
46	49636	73	2003.1742897397
46	50544	74	2015.8536270503
46	51458	75	2028.5124861374
46	52372	76	2041.171119066
46	53286	77	2053.8918781094
46	54206	78	2067.2912671026
46	55128	79	2080.8381705275
46	56056	80	2094.4190934766
46	56984	81	2107.0169984754
46	57920	82	2116.1154090175
46	58862	83	2120.7690892164
46	59804	84	2120.534289808
46	60746	85	2120.0672984319
46	61688	86	2119.5996605409
46	62630	87	2119.1309487382
46	63572	88	2118.6621330995
46	64514	89	2118.1933972035
46	65456	90	2117.7248556726
46	66404	91	2117.2552843727
46	67352	92	2116.7856360897
46	68306	93	2116.3168993192
46	69266	94	2115.847718209
46	70226	95	2114.9944325546
46	71186	96	2113.0385445338
46	72146	97	2111.0845246743
46	73106	98	2106.6426364584
46	74066	99	2102.1675525885
46	75026	100	2098.1394063821
46	75986	101	2092.9877065755
46	76946	102	2088.0221949108
46	77906	103	2083.7722359272
46	78866	104	2079.4047927437
46	79826	105	2075.7925639404
46	80786	106	2069.6701450124
46	81746	107	2061.7531345394
46	82706	108	2052.3744633393
46	83666	109	2042.1979936594
46	84626	110	2032.0214229124
46	85586	111	2021.8549018055
46	86546	112	2011.6916390769
46	87506	113	2001.5252669733
46	88466	114	1991.3551421976
46	89426	115	1981.1804486644
46	90386	116	1971.325557488
46	91346	117	1961.6152545083
46	92306	118	1951.9127439251
46	93266	119	1942.2012542663
46	94226	120	1932.485863328
46	95186	121	1922.7571384991
46	96146	122	1913.0476987353
46	97106	123	1903.3250590712
46	98066	124	1893.6127214506
46	99026	125	1883.8916787831
46	99987	126	1874.1850400846
46	100950	127	1864.2881828975
46	101913	128	1854.3019758752
46	102876	129	1844.3366102213
46	103839	130	1834.3564014966
46	104803	131	1824.3785878373
46	105767	132	1814.4146508416
46	106731	133	1804.4372398015
46	107696	134	1794.4724347871
46	108663	135	1784.5059579154
46	109630	136	1774.5205683587
46	110597	137	1764.6675096424
46	111566	138	1755.0752848731
46	112536	139	1745.4842804996
46	113506	140	1735.8036336787
46	114476	141	1726.0449100286
46	115447	142	1716.282112035
46	116418	143	1706.5327333221
46	117390	144	1696.7746532923
46	118362	145	1687.021173507
46	119336	146	1677.2651072638
46	120310	147	1667.5217103586
46	121284	148	1657.7625027513
46	122258	149	1648.0149610788
46	123232	150	1638.255042797
46	124206	151	1628.4971253695
46	125180	152	1618.7530065235
46	126155	153	1608.9934601346
46	127131	154	1599.227133044
46	128107	155	1589.4673016714
46	129084	156	1579.7067851294
46	130063	157	1569.9511550218
46	131043	158	1560.1912575457
46	132015	159	1550.4887250094
46	132986	160	1540.5715066008
46	133966	161	1530.6493866742
46	134942	162	1520.7275071125
46	135912	163	1510.8167233057
46	136888	164	1500.9011812452
46	137862	165	1491.3648506794
47	10452	29	3.8828872453123
47	11352	30	5.9988936607358
47	12252	31	7.8951206281273
47	13150	32	9.8672585406135
47	14042	33	11.777866742807
47	14932	34	13.651300752841
47	15816	35	13.934324927863
47	16690	36	13.891042668009
47	17558	37	13.983313237505
47	18412	38	13.97325289146
47	19252	39	13.925957714044
47	20086	40	13.261313588695
47	20916	41	12.58786171646
47	21754	42	12.188846033047
47	22604	43	11.724026245711
47	23476	44	11.561447849507
47	24358	45	9.7334866534347
47	25256	46	9.5680296917908
47	26156	47	7.7292235245271
47	27056	48	8.8458649738073
47	27956	49	6.7056094937373
47	28856	50	8.9338436366452
47	29756	51	10.845893174463
47	30656	52	12.821195860014
47	31556	53	13.982552938263
47	32456	54	13.922799804155
47	33356	55	13.917613271556
47	34256	56	13.881914624018
47	35156	57	13.922737196586
47	36056	58	13.889632969329
47	36956	59	13.663161182526
47	37856	60	13.499206383711
47	38756	61	13.365863336334
47	39656	62	13.150158729156
47	40556	63	13.054289155149
47	41462	64	12.98692804676
47	42368	65	12.972738799529
47	43274	66	12.899147967361
47	44186	67	12.833494801207
47	45098	68	12.867873624994
47	46010	69	12.76043842377
47	46920	70	12.713104822929
47	47828	71	12.662458424183
47	48730	72	12.764655237635
47	49636	73	12.746683206759
47	50544	74	12.612837443937
47	51458	75	12.698564130208
47	52372	76	12.821006925007
47	53286	77	12.979064233197
47	54206	78	13.541399135624
47	55128	79	13.528351955529
47	56056	80	13.633267163346
47	56984	81	13.75945487167
47	57920	82	13.773673958201
47	58862	83	13.756067825854
47	59804	84	13.910778853496
47	60746	85	13.798289288336
47	61688	86	13.94656948572
47	62630	87	13.91435914499
47	63572	88	13.861344101923
47	64514	89	13.894364009581
47	65456	90	13.887913265927
47	66404	91	13.881048283831
47	67352	92	13.920431573549
47	68306	93	13.872062715143
47	69266	94	13.915544309617
47	70226	95	13.937482186174
47	71186	96	13.875739504839
47	72146	97	13.990402643595
47	73106	98	13.850952109715
47	74066	99	13.951955602945
47	75026	100	11.309456469828
47	75986	101	9.7511312833152
47	76946	102	9.6078376041563
47	77906	103	8.2668005468926
47	78866	104	8.019501066638
47	79826	105	7.7404922883843
47	80786	106	9.7346903824808
47	81746	107	11.720520907443
47	82706	108	13.729663201738
47	83666	109	13.973785015931
47	84626	110	13.992917862281
47	85586	111	13.929920565395
47	86546	112	13.994020277364
47	87506	113	13.973968630419
47	88466	114	13.967752528784
47	89426	115	13.887733560582
47	90386	116	13.935275619321
47	91346	117	13.896090831095
47	92306	118	13.93262229606
47	93266	119	13.892128594851
47	94226	120	13.921925454363
47	95186	121	13.997721134285
47	96146	122	13.956281926704
47	97106	123	13.926021428241
47	98066	124	13.972125979499
47	99026	125	13.99371154051
47	99987	126	13.899998690241
47	100950	127	13.975068273197
47	101913	128	13.946384775518
47	102876	129	13.966767672854
47	103839	130	13.98969959676
47	104803	131	13.996372249553
47	105767	132	13.926627763482
47	106731	133	13.951326547398
47	107696	134	13.876905583299
47	108663	135	13.870362090985
47	109630	136	13.953081906633
47	110597	137	13.870873585131
47	111566	138	13.914634420732
47	112536	139	13.933678923766
47	113506	140	13.896436739757
47	114476	141	13.990159701228
47	115447	142	13.99059039033
47	116418	143	13.875117458275
47	117390	144	13.945647605404
47	118362	145	13.883882278078
47	119336	146	13.890426513986
47	120310	147	13.926292819821
47	121284	148	13.980255088923
47	122258	149	13.916476694664
47	123232	150	13.998243244442
47	124206	151	13.884412044371
47	125180	152	13.972626534614
47	126155	153	13.947481242004
47	127131	154	13.977064997477
47	128107	155	13.950760424717
47	129084	156	13.943673167471
47	130063	157	13.887273999576
47	131043	158	13.904328265637
47	132015	159	13.902605237935
47	132986	160	13.872499766031
47	133966	161	13.987054627736
47	134942	162	13.934617082917
47	135912	163	13.965812218699
47	136888	164	13.887702917426
47	137862	165	13.92731779448
48	11352	30	2.1160064154235
48	12252	31	1.8962269673916
48	13150	32	1.9721379124862
48	14042	33	1.9106082021934
48	14932	34	1.873434010034
48	15816	35	0.28302417502231
48	16690	36	-0.043282259854022
48	17558	37	0.092270569496321
48	18412	38	-0.010060346045066
48	19252	39	-0.047295177415943
48	20086	40	-0.66464412534966
48	20916	41	-0.67345187223489
48	21754	42	-0.39901568341297
48	22604	43	-0.46481978733587
48	23476	44	-0.16257839620446
48	24358	45	-1.8279611960719
48	25256	46	-0.16545696164398
48	26156	47	-1.8388061672636
48	27056	48	1.1166414492802
48	27956	49	-2.14025548007
48	28856	50	2.2282341429079
48	29756	51	1.9120495378179
48	30656	52	1.9753026855504
48	31556	53	1.1613570782498
48	32456	54	-0.059753134108615
48	33356	55	-0.0051865325984544
48	34256	56	-0.035698647538666
48	35156	57	0.040822572568432
48	36056	58	-0.033104227257427
48	36956	59	-0.22647178680297
48	37856	60	-0.16395479881473
48	38756	61	-0.13334304737716
48	39656	62	-0.21570460717801
48	40556	63	-0.095869574006548
48	41462	64	-0.067361108389294
48	42368	65	-0.014189247231224
48	43274	66	-0.073590832167659
48	44186	67	-0.065653166154457
48	45098	68	0.034378823787153
48	46010	69	-0.10743520122351
48	46920	70	-0.047333600841405
48	47828	71	-0.050646398746315
48	48730	72	0.10219681345207
48	49636	73	-0.017972030875184
48	50544	74	-0.13384576282277
48	51458	75	0.085726686270929
48	52372	76	0.12244279479992
48	53286	77	0.1580573081894
48	54206	78	0.56233490242665
48	55128	79	-0.013047180094198
48	56056	80	0.10491520781639
48	56984	81	0.12618770832379
48	57920	82	0.014219086531138
48	58862	83	-0.017606132346984
48	59804	84	0.15471102764181
48	60746	85	-0.11248956515991
48	61688	86	0.14828019738477
48	62630	87	-0.03221034073067
48	63572	88	-0.053015043067205
48	64514	89	0.033019907658106
48	65456	90	-0.0064507436536108
48	66404	91	-0.0068649820962463
48	67352	92	0.039383289718534
48	68306	93	-0.04836885840632
48	69266	94	0.043481594474505
48	70226	95	0.021937876556549
48	71186	96	-0.061742681334726
48	72146	97	0.11466313875606
48	73106	98	-0.13945053387992
48	74066	99	0.10100349322958
48	75026	100	-2.6424991331174
48	75986	101	-1.5583251865124
48	76946	102	-0.1432936791589
48	77906	103	-1.3410370572637
48	78866	104	-0.24729948025457
48	79826	105	-0.2790087782537
48	80786	106	1.9941980940965
48	81746	107	1.9858305249619
48	82706	108	2.0091422942956
48	83666	109	0.24412181419302
48	84626	110	0.019132846349384
48	85586	111	-0.062997296885587
48	86546	112	0.064099711969028
48	87506	113	-0.020051646945065
48	88466	114	-0.0062161016347826
48	89426	115	-0.080018968202639
48	90386	116	0.047542058739346
48	91346	117	-0.039184788225684
48	92306	118	0.036531464965082
48	93266	119	-0.04049370120978
48	94226	120	0.029796859512571
48	95186	121	0.075795679921285
48	96146	122	-0.041439207580407
48	97106	123	-0.030260498463175
48	98066	124	0.046104551258031
48	99026	125	0.021585561011452
48	99987	126	-0.093712850268931
48	100950	127	0.075069582955912
48	101913	128	-0.028683497679886
48	102876	129	0.020382897336967
48	103839	130	0.022931923905853
48	104803	131	0.0066726527921865
48	105767	132	-0.069744486070704
48	106731	133	0.024698783915955
48	107696	134	-0.074420964098536
48	108663	135	-0.0065434923139396
48	109630	136	0.082719815648161
48	110597	137	-0.082208321501968
48	111566	138	0.043760835600551
48	112536	139	0.019044503034094
48	113506	140	-0.037242184008937
48	114476	141	0.093722961470483
48	115447	142	0.00043068910250454
48	116418	143	-0.11547293205513
48	117390	144	0.070530147128739
48	118362	145	-0.061765327325556
48	119336	146	0.0065442359074943
48	120310	147	0.03586630583508
48	121284	148	0.053962269101758
48	122258	149	-0.063778394258117
48	123232	150	0.081766549777241
48	124206	151	-0.11383120007114
48	125180	152	0.088214490243699
48	126155	153	-0.025145292610395
48	127131	154	0.029583755473141
48	128107	155	-0.026304572760129
48	129084	156	-0.0070872572460203
48	130063	157	-0.056399167894853
48	131043	158	0.017054266061169
48	132015	159	-0.0017230277019564
48	132986	160	-0.030105471904388
48	133966	161	0.11455486170482
48	134942	162	-0.052437544818966
48	135912	163	0.031195135782472
48	136888	164	-0.078109301272779
48	137862	165	0.039614877053536
49	11352	30	4.4785105230977
49	12252	31	5.1443193633925
49	13150	32	6.3645076091391
49	14042	33	7.2522894608867
49	14932	34	8.1670828011197
49	15816	35	2.9825727470271
49	16690	36	1.8828212490582
49	17558	37	2.348087187102
49	18412	38	2.0022285117829
49	19252	39	1.8725452088649
49	20086	40	0.973
49	20916	41	0.973
49	21754	42	0.973
49	22604	43	0.973
49	23476	44	1.3574915360634
49	24358	45	0.973
49	25256	46	1.2709524322121
49	26156	47	0.973
49	27056	48	3.9811835507422
49	27956	49	0.973
49	28856	50	6.4043522235542
49	29756	51	6.7488967827502
49	30656	52	8.0266950264913
49	31556	53	5.9505950531554
49	32456	54	1.8304578173297
49	33356	55	2.0130280664406
49	34256	56	1.9073596003186
49	35156	57	2.1679220162863
49	36056	58	1.9167625336242
49	36956	59	1.2590073071099
49	37856	60	1.4550527413951
49	38756	61	1.5458270003814
49	39656	62	1.2708259440758
49	40556	63	1.6436349305635
49	41462	64	1.7280040424103
49	42368	65	1.893125497626
49	43274	66	1.7017529047708
49	44186	67	1.7212883370665
49	45098	68	2.0341911706338
49	46010	69	1.5871135282169
49	46920	70	1.7680704419543
49	47828	71	1.7538359842274
49	48730	72	2.2322852911307
49	49636	73	1.8610125229513
49	50544	74	1.4969510343912
49	51458	75	2.1740958891861
49	52372	76	2.301504755859
49	53286	77	2.4324835520174
49	54206	78	3.8277883220036
49	55128	79	1.948791250149
49	56056	80	2.3464644694028
49	56984	81	2.4328428978812
49	57920	82	2.0630332192396
49	58862	83	1.9556917181083
49	59804	84	2.5483964196595
49	60746	85	1.6442461281677
49	61688	86	2.5317669590055
49	62630	87	1.9220799375914
49	63572	88	1.8476004127787
49	64514	89	2.1386254737664
49	65456	90	2.0058102270332
49	66404	91	2.0037371983912
49	67352	92	2.1628357294862
49	68306	93	1.8640846906707
49	69266	94	2.1760354760311
49	70226	95	2.1061388999477
49	71186	96	1.8196925605993
49	72146	97	2.4244719294141
49	73106	98	1.5581504015515
49	74066	99	2.3735455145629
49	75026	100	0.973
49	75986	101	0.973
49	76946	102	1.3236184316649
49	77906	103	0.973
49	78866	104	0.973
49	79826	105	0.973
49	80786	106	6.3433301343051
49	81746	107	7.4334003493641
49	82706	108	8.6593520937804
49	83666	109	2.8582864201739
49	84626	110	2.1026430736089
49	85586	111	1.8201904989652
49	86546	112	2.2544145656131
49	87506	113	1.9686520671199
49	88466	114	2.0146195993808
49	89426	115	1.7595635196927
49	90386	116	2.1918911397499
49	91346	117	1.897004431495
49	92306	118	2.1546190209958
49	93266	119	1.8922564857171
49	94226	120	2.1308379703405
49	95186	121	2.2943069457413
49	96146	122	1.8949921016594
49	97106	123	1.92972227889
49	98066	124	2.1912389758998
49	99026	125	2.1109998329152
49	99987	126	1.7147016944769
49	100950	127	2.2891268033262
49	101913	128	1.9369525795811
49	102876	129	2.1040523104576
49	103839	130	2.1151070465817
49	104803	131	2.0609833368137
49	105767	132	1.7972589059643
49	106731	133	2.1169089107375
49	107696	134	1.7773932715713
49	108663	135	2.0037438387824
49	109630	136	2.31220563907
49	110597	137	1.750856494621
49	111566	138	2.1768696365543
49	112536	139	2.0960146344692
49	113506	140	1.9035422251121
49	114476	141	2.3538378201518
49	115447	142	2.0393351204232
49	116418	143	1.6399698558403
49	117390	144	2.2703296256579
49	118362	145	1.8203231735889
49	119336	146	2.0495638225123
49	120310	147	2.1516851769962
49	121284	148	2.2186360598378
49	122258	149	1.8164041118091
49	123232	150	2.3145132087671
49	124206	151	1.6461492742932
49	125180	152	2.333096901451
49	126155	153	1.9489501223897
49	127131	154	2.1361495722056
49	128107	155	1.9453676128107
49	129084	156	2.0092669306663
49	130063	157	1.8385771775996
49	131043	158	2.086218977875
49	132015	159	2.02312262478
49	132986	160	1.9251834650653
49	133966	161	2.4236713462787
49	134942	162	1.8560606119518
49	135912	163	2.14034128414
49	136888	164	1.7659525282655
49	137862	165	2.1643805939371

